<?xml version="1.0" encoding="UTF-8"?>

<!-- generated on 12/25/21 13:48:32 by Eclipse SUMO netconvert Version 1.8.0
<configuration xmlns:xsi="http://www.w3.org/2001/XMLSchema-instance" xsi:noNamespaceSchemaLocation="http://sumo.dlr.de/xsd/netconvertConfiguration.xsd">

    <input>
        <osm-files value="C:\PHD\VSL\RL-VSL\Project%20SUMO-VSL\map\map.osm"/>
    </input>

    <output>
        <output-file value="C:\PHD\VSL\RL-VSL\Project%20SUMO-VSL\map\map.net.xml"/>
    </output>

    <projection>
        <proj.utm value="true"/>
    </projection>

    <report>
        <aggregate-warnings value="5"/>
    </report>

</configuration>
-->

<net version="1.6" junctionCornerDetail="5" limitTurnSpeed="5.50" xmlns:xsi="http://www.w3.org/2001/XMLSchema-instance" xsi:noNamespaceSchemaLocation="http://sumo.dlr.de/xsd/net_file.xsd">

    <location netOffset="-648353.26,-3726227.43" convBoundary="0.00,0.00,6103.85,5315.53" origBoundary="-7.399861,33.665593,-7.333252,33.712723" projParameter="+proj=utm +zone=29 +ellps=WGS84 +datum=WGS84 +units=m +no_defs"/>

    <type id="highway.bridleway" priority="1" numLanes="1" speed="2.78" allow="pedestrian" oneway="1" width="2.00"/>
    <type id="highway.bus_guideway" priority="1" numLanes="1" speed="27.78" allow="bus" oneway="1"/>
    <type id="highway.cycleway" priority="1" numLanes="1" speed="8.33" allow="bicycle" oneway="0" width="1.00"/>
    <type id="highway.footway" priority="1" numLanes="1" speed="2.78" allow="pedestrian" oneway="1" width="2.00"/>
    <type id="highway.ford" priority="1" numLanes="1" speed="2.78" allow="army" oneway="0"/>
    <type id="highway.living_street" priority="2" numLanes="1" speed="2.78" disallow="tram rail_urban rail rail_electric rail_fast ship" oneway="0"/>
    <type id="highway.motorway" priority="14" numLanes="2" speed="39.44" allow="private emergency authority army vip passenger hov taxi bus coach delivery truck trailer motorcycle evehicle custom1 custom2" oneway="1"/>
    <type id="highway.motorway_link" priority="9" numLanes="1" speed="22.22" allow="private emergency authority army vip passenger hov taxi bus coach delivery truck trailer motorcycle evehicle custom1 custom2" oneway="1"/>
    <type id="highway.path" priority="1" numLanes="1" speed="2.78" allow="pedestrian bicycle" oneway="0" width="2.00"/>
    <type id="highway.pedestrian" priority="1" numLanes="1" speed="2.78" allow="pedestrian" oneway="1" width="2.00"/>
    <type id="highway.primary" priority="12" numLanes="2" speed="27.78" disallow="tram rail_urban rail rail_electric rail_fast ship" oneway="0"/>
    <type id="highway.primary_link" priority="7" numLanes="1" speed="22.22" disallow="tram rail_urban rail rail_electric rail_fast ship" oneway="0"/>
    <type id="highway.raceway" priority="15" numLanes="2" speed="83.33" allow="vip" oneway="0"/>
    <type id="highway.residential" priority="3" numLanes="1" speed="13.89" disallow="tram rail_urban rail rail_electric rail_fast ship" oneway="0"/>
    <type id="highway.secondary" priority="11" numLanes="1" speed="27.78" disallow="tram rail_urban rail rail_electric rail_fast ship" oneway="0"/>
    <type id="highway.secondary_link" priority="6" numLanes="1" speed="22.22" disallow="tram rail_urban rail rail_electric rail_fast ship" oneway="0"/>
    <type id="highway.service" priority="1" numLanes="1" speed="5.56" allow="pedestrian delivery bicycle" oneway="0"/>
    <type id="highway.stairs" priority="1" numLanes="1" speed="1.39" allow="pedestrian" oneway="1" width="2.00"/>
    <type id="highway.step" priority="1" numLanes="1" speed="1.39" allow="pedestrian" oneway="1" width="2.00"/>
    <type id="highway.steps" priority="1" numLanes="1" speed="1.39" allow="pedestrian" oneway="1" width="2.00"/>
    <type id="highway.tertiary" priority="10" numLanes="1" speed="22.22" disallow="tram rail_urban rail rail_electric rail_fast ship" oneway="0"/>
    <type id="highway.tertiary_link" priority="5" numLanes="1" speed="22.22" disallow="tram rail_urban rail rail_electric rail_fast ship" oneway="0"/>
    <type id="highway.track" priority="1" numLanes="1" speed="5.56" allow="pedestrian motorcycle moped bicycle" oneway="0"/>
    <type id="highway.trunk" priority="13" numLanes="2" speed="27.78" disallow="pedestrian bicycle tram rail_urban rail rail_electric rail_fast ship" oneway="0"/>
    <type id="highway.trunk_link" priority="8" numLanes="1" speed="22.22" disallow="pedestrian bicycle tram rail_urban rail rail_electric rail_fast ship" oneway="0"/>
    <type id="highway.unclassified" priority="4" numLanes="1" speed="13.89" disallow="tram rail_urban rail rail_electric rail_fast ship" oneway="0"/>
    <type id="highway.unsurfaced" priority="1" numLanes="1" speed="8.33" disallow="tram rail_urban rail rail_electric rail_fast ship" oneway="0"/>
    <type id="railway.highspeed" priority="21" numLanes="1" speed="69.44" allow="rail_fast" oneway="1"/>
    <type id="railway.light_rail" priority="19" numLanes="1" speed="27.78" allow="rail_urban" oneway="1"/>
    <type id="railway.preserved" priority="16" numLanes="1" speed="27.78" allow="rail" oneway="1"/>
    <type id="railway.rail" priority="20" numLanes="1" speed="44.44" allow="rail" oneway="1"/>
    <type id="railway.subway" priority="18" numLanes="1" speed="27.78" allow="rail_urban" oneway="1"/>
    <type id="railway.tram" priority="17" numLanes="1" speed="13.89" allow="tram" oneway="1"/>

    <edge id=":1544749524_0" function="internal">
        <lane id=":1544749524_0_0" index="0" allow="private emergency authority army vip passenger hov taxi bus coach delivery truck trailer motorcycle evehicle custom1 custom2" speed="33.33" length="0.30" shape="4895.96,4345.30 4895.85,4345.03"/>
        <lane id=":1544749524_0_1" index="1" allow="private emergency authority army vip passenger hov taxi bus coach delivery truck trailer motorcycle evehicle custom1 custom2" speed="33.33" length="0.30" shape="4898.92,4344.08 4898.81,4343.81"/>
        <lane id=":1544749524_0_2" index="2" allow="private emergency authority army vip passenger hov taxi bus coach delivery truck trailer motorcycle evehicle custom1 custom2" speed="33.33" length="0.30" shape="4901.88,4342.87 4901.77,4342.58"/>
    </edge>
    <edge id=":1544873314_0" function="internal">
        <lane id=":1544873314_0_0" index="0" allow="private emergency authority army vip passenger hov taxi bus coach delivery truck trailer motorcycle evehicle custom1 custom2" speed="33.33" length="0.37" shape="4932.84,4350.11 4933.03,4350.55"/>
        <lane id=":1544873314_0_1" index="1" allow="private emergency authority army vip passenger hov taxi bus coach delivery truck trailer motorcycle evehicle custom1 custom2" speed="33.33" length="0.37" shape="4929.93,4351.43 4930.07,4351.77"/>
        <lane id=":1544873314_0_2" index="2" allow="private emergency authority army vip passenger hov taxi bus coach delivery truck trailer motorcycle evehicle custom1 custom2" speed="33.33" length="0.37" shape="4927.02,4352.76 4927.12,4352.99"/>
    </edge>
    <edge id=":1544873327_0" function="internal">
        <lane id=":1544873327_0_0" index="0" allow="private emergency authority army vip passenger hov taxi bus coach delivery truck trailer motorcycle evehicle custom1 custom2" speed="33.33" length="0.30" shape="4945.50,4380.70 4945.62,4380.99"/>
        <lane id=":1544873327_0_1" index="1" allow="private emergency authority army vip passenger hov taxi bus coach delivery truck trailer motorcycle evehicle custom1 custom2" speed="33.33" length="0.30" shape="4942.54,4381.92 4942.65,4382.20"/>
        <lane id=":1544873327_0_2" index="2" allow="private emergency authority army vip passenger hov taxi bus coach delivery truck trailer motorcycle evehicle custom1 custom2" speed="33.33" length="0.30" shape="4939.58,4383.14 4939.69,4383.40"/>
    </edge>
    <edge id=":1544874782_0" function="internal">
        <lane id=":1544874782_0_0" index="0" allow="private emergency authority army vip passenger hov taxi bus coach delivery truck trailer motorcycle evehicle custom1 custom2" speed="33.33" length="0.28" shape="4909.09,4377.23 4908.94,4376.90"/>
        <lane id=":1544874782_0_1" index="1" allow="private emergency authority army vip passenger hov taxi bus coach delivery truck trailer motorcycle evehicle custom1 custom2" speed="33.33" length="0.28" shape="4912.01,4375.94 4911.90,4375.68"/>
        <lane id=":1544874782_0_2" index="2" allow="private emergency authority army vip passenger hov taxi bus coach delivery truck trailer motorcycle evehicle custom1 custom2" speed="33.33" length="0.28" shape="4914.94,4374.65 4914.86,4374.47"/>
    </edge>
    <edge id=":1849018776_0" function="internal">
        <lane id=":1849018776_0_0" index="0" allow="pedestrian motorcycle moped bicycle" speed="3.65" length="4.67" shape="3910.08,2843.04 3909.89,2841.61 3910.23,2840.78 3911.10,2840.55 3912.49,2840.93"/>
    </edge>
    <edge id=":1849018882_0" function="internal">
        <lane id=":1849018882_0_0" index="0" disallow="tram rail_urban rail rail_electric rail_fast ship" speed="3.65" length="4.67" shape="4095.14,3165.05 4094.96,3163.61 4095.31,3162.79 4096.18,3162.57 4097.57,3162.97"/>
    </edge>
    <edge id=":1849018893_0" function="internal">
        <lane id=":1849018893_0_0" index="0" disallow="tram rail_urban rail rail_electric rail_fast ship" speed="6.43" length="9.03" shape="4129.21,3205.23 4127.39,3203.54 4125.48,3202.85 4123.48,3203.18 4121.39,3204.53"/>
    </edge>
    <edge id=":1849018893_1" function="internal">
        <lane id=":1849018893_1_0" index="0" disallow="tram rail_urban rail rail_electric rail_fast ship" speed="13.89" length="14.45" shape="4129.21,3205.23 4119.99,3194.11"/>
    </edge>
    <edge id=":1849018893_2" function="internal">
        <lane id=":1849018893_2_0" index="0" disallow="tram rail_urban rail rail_electric rail_fast ship" speed="3.65" length="2.34" shape="4129.21,3205.23 4129.08,3203.80 4129.46,3202.98"/>
    </edge>
    <edge id=":1849018893_9" function="internal">
        <lane id=":1849018893_9_0" index="0" disallow="tram rail_urban rail rail_electric rail_fast ship" speed="3.65" length="2.34" shape="4129.46,3202.98 4130.33,3202.79 4131.71,3203.23"/>
    </edge>
    <edge id=":1849018893_3" function="internal">
        <lane id=":1849018893_3_0" index="0" disallow="tram rail_urban rail rail_electric rail_fast ship" speed="13.89" length="14.54" shape="4122.42,3192.03 4131.71,3203.23"/>
    </edge>
    <edge id=":1849018893_4" function="internal">
        <lane id=":1849018893_4_0" index="0" disallow="tram rail_urban rail rail_electric rail_fast ship" speed="8.04" length="6.05" shape="4122.42,3192.03 4124.49,3195.31 4124.84,3197.46"/>
    </edge>
    <edge id=":1849018893_5" function="internal">
        <lane id=":1849018893_5_0" index="0" disallow="tram rail_urban rail rail_electric rail_fast ship" speed="3.65" length="2.34" shape="4122.42,3192.03 4122.59,3193.46 4122.25,3194.29"/>
    </edge>
    <edge id=":1849018893_10" function="internal">
        <lane id=":1849018893_10_0" index="0" disallow="tram rail_urban rail rail_electric rail_fast ship" speed="8.04" length="8.23" shape="4124.84,3197.46 4125.01,3198.49 4123.98,3201.56 4121.39,3204.53"/>
    </edge>
    <edge id=":1849018893_11" function="internal">
        <lane id=":1849018893_11_0" index="0" disallow="tram rail_urban rail rail_electric rail_fast ship" speed="3.65" length="2.34" shape="4122.25,3194.29 4121.38,3194.50 4119.99,3194.11"/>
    </edge>
    <edge id=":1849018893_6" function="internal">
        <lane id=":1849018893_6_0" index="0" disallow="tram rail_urban rail rail_electric rail_fast ship" speed="6.56" length="9.14" shape="4119.29,3202.11 4120.96,3200.21 4121.63,3198.24 4121.31,3196.21 4119.99,3194.11"/>
    </edge>
    <edge id=":1849018893_7" function="internal">
        <lane id=":1849018893_7_0" index="0" disallow="tram rail_urban rail rail_electric rail_fast ship" speed="7.94" length="14.33" shape="4119.29,3202.11 4122.61,3199.98 4125.79,3199.45 4128.82,3200.53 4131.71,3203.23"/>
    </edge>
    <edge id=":1849018893_8" function="internal">
        <lane id=":1849018893_8_0" index="0" disallow="tram rail_urban rail rail_electric rail_fast ship" speed="3.65" length="4.67" shape="4119.29,3202.11 4120.72,3201.93 4121.55,3202.27 4121.77,3203.14 4121.39,3204.53"/>
    </edge>
    <edge id=":1849018910_0" function="internal">
        <lane id=":1849018910_0_0" index="0" disallow="tram rail_urban rail rail_electric rail_fast ship" speed="3.65" length="4.67" shape="3807.45,3237.22 3807.29,3235.79 3807.65,3234.97 3808.52,3234.76 3809.90,3235.17"/>
    </edge>
    <edge id=":1849018914_0" function="internal">
        <lane id=":1849018914_0_0" index="0" disallow="tram rail_urban rail rail_electric rail_fast ship" speed="13.89" length="0.33" shape="4153.66,3257.78 4153.41,3257.99"/>
    </edge>
    <edge id=":1849018914_1" function="internal">
        <lane id=":1849018914_1_0" index="0" disallow="tram rail_urban rail rail_electric rail_fast ship" speed="13.89" length="0.11" shape="4151.43,3255.47 4151.52,3255.40"/>
    </edge>
    <edge id=":1849018930_0" function="internal">
        <lane id=":1849018930_0_0" index="0" disallow="tram rail_urban rail rail_electric rail_fast ship" speed="3.65" length="4.67" shape="4024.25,3288.73 4022.82,3288.91 4021.99,3288.57 4021.77,3287.71 4022.15,3286.32"/>
    </edge>
    <edge id=":1849018970_0" function="internal">
        <lane id=":1849018970_0_0" index="0" disallow="tram rail_urban rail rail_electric rail_fast ship" speed="13.89" length="14.41" shape="3960.77,3422.11 3951.68,3410.93"/>
    </edge>
    <edge id=":1849018970_1" function="internal">
        <lane id=":1849018970_1_0" index="0" disallow="tram rail_urban rail rail_electric rail_fast ship" speed="8.25" length="5.79" shape="3960.77,3422.11 3958.84,3418.85 3958.57,3416.86"/>
    </edge>
    <edge id=":1849018970_2" function="internal">
        <lane id=":1849018970_2_0" index="0" disallow="tram rail_urban rail rail_electric rail_fast ship" speed="3.65" length="2.34" shape="3960.77,3422.11 3960.63,3420.67 3961.00,3419.86"/>
    </edge>
    <edge id=":1849018970_9" function="internal">
        <lane id=":1849018970_9_0" index="0" disallow="tram rail_urban rail rail_electric rail_fast ship" speed="8.25" length="8.51" shape="3958.57,3416.86 3958.40,3415.65 3959.43,3412.51 3961.94,3409.42"/>
    </edge>
    <edge id=":1849018970_10" function="internal">
        <lane id=":1849018970_10_0" index="0" disallow="tram rail_urban rail rail_electric rail_fast ship" speed="3.65" length="2.34" shape="3961.00,3419.86 3961.88,3419.67 3963.25,3420.09"/>
    </edge>
    <edge id=":1849018970_3" function="internal">
        <lane id=":1849018970_3_0" index="0" disallow="tram rail_urban rail rail_electric rail_fast ship" speed="6.81" length="9.42" shape="3964.13,3411.75 3962.45,3413.80 3961.75,3415.88 3962.01,3417.97 3963.25,3420.09"/>
    </edge>
    <edge id=":1849018970_4" function="internal">
        <lane id=":1849018970_4_0" index="0" disallow="tram rail_urban rail rail_electric rail_fast ship" speed="7.88" length="14.48" shape="3964.13,3411.75 3960.85,3414.05 3957.69,3414.69 3954.63,3413.64 3951.68,3410.93"/>
    </edge>
    <edge id=":1849018970_5" function="internal">
        <lane id=":1849018970_5_0" index="0" disallow="tram rail_urban rail rail_electric rail_fast ship" speed="3.65" length="4.67" shape="3964.13,3411.75 3962.71,3411.99 3961.87,3411.68 3961.61,3410.82 3961.94,3409.42"/>
    </edge>
    <edge id=":1849018970_6" function="internal">
        <lane id=":1849018970_6_0" index="0" disallow="tram rail_urban rail rail_electric rail_fast ship" speed="6.35" length="9.04" shape="3954.16,3408.91 3956.00,3410.60 3957.91,3411.25 3959.89,3410.86 3961.94,3409.42"/>
    </edge>
    <edge id=":1849018970_7" function="internal">
        <lane id=":1849018970_7_0" index="0" disallow="tram rail_urban rail rail_electric rail_fast ship" speed="13.89" length="14.41" shape="3954.16,3408.91 3963.25,3420.09"/>
    </edge>
    <edge id=":1849018970_8" function="internal">
        <lane id=":1849018970_8_0" index="0" disallow="tram rail_urban rail rail_electric rail_fast ship" speed="3.65" length="2.34" shape="3954.16,3408.91 3954.30,3410.34 3953.93,3411.16"/>
    </edge>
    <edge id=":1849018970_11" function="internal">
        <lane id=":1849018970_11_0" index="0" disallow="tram rail_urban rail rail_electric rail_fast ship" speed="3.65" length="2.34" shape="3953.93,3411.16 3953.06,3411.35 3951.68,3410.93"/>
    </edge>
    <edge id=":1849019038_0" function="internal">
        <lane id=":1849019038_0_0" index="0" disallow="tram rail_urban rail rail_electric rail_fast ship" speed="13.89" length="15.08" shape="4054.12,3533.24 4051.35,3530.69 4048.67,3528.03 4046.07,3525.29 4043.58,3522.47"/>
    </edge>
    <edge id=":1849019038_1" function="internal">
        <lane id=":1849019038_1_0" index="0" disallow="tram rail_urban rail rail_electric rail_fast ship" speed="8.17" length="6.09" shape="4054.12,3533.24 4051.65,3530.27 4051.03,3528.13"/>
    </edge>
    <edge id=":1849019038_2" function="internal">
        <lane id=":1849019038_2_0" index="0" disallow="tram rail_urban rail rail_electric rail_fast ship" speed="3.65" length="2.34" shape="4054.12,3533.24 4053.75,3531.84 4053.98,3530.98"/>
    </edge>
    <edge id=":1849019038_9" function="internal">
        <lane id=":1849019038_9_0" index="0" disallow="tram rail_urban rail rail_electric rail_fast ship" speed="8.17" length="8.52" shape="4051.03,3528.13 4050.74,3527.14 4051.40,3523.84 4053.64,3520.37"/>
    </edge>
    <edge id=":1849019038_10" function="internal">
        <lane id=":1849019038_10_0" index="0" disallow="tram rail_urban rail rail_electric rail_fast ship" speed="3.65" length="2.34" shape="4053.98,3530.98 4054.81,3530.65 4056.24,3530.84"/>
    </edge>
    <edge id=":1849019038_3" function="internal">
        <lane id=":1849019038_3_0" index="0" disallow="tram rail_urban rail rail_electric rail_fast ship" speed="6.71" length="9.53" shape="4056.07,3522.44 4054.58,3524.73 4054.12,3526.90 4054.67,3528.93 4056.24,3530.84"/>
    </edge>
    <edge id=":1849019038_4" function="internal">
        <lane id=":1849019038_4_0" index="0" disallow="tram rail_urban rail rail_electric rail_fast ship" speed="7.75" length="14.83" shape="4056.07,3522.44 4052.96,3525.19 4049.83,3526.11 4046.71,3525.21 4043.58,3522.47"/>
    </edge>
    <edge id=":1849019038_5" function="internal">
        <lane id=":1849019038_5_0" index="0" disallow="tram rail_urban rail rail_electric rail_fast ship" speed="3.65" length="4.67" shape="4056.07,3522.44 4054.69,3522.84 4053.82,3522.63 4053.47,3521.80 4053.64,3520.37"/>
    </edge>
    <edge id=":1849019038_6" function="internal">
        <lane id=":1849019038_6_0" index="0" disallow="tram rail_urban rail rail_electric rail_fast ship" speed="6.19" length="9.05" shape="4046.01,3520.39 4047.92,3522.06 4049.83,3522.61 4051.73,3522.05 4053.64,3520.37"/>
    </edge>
    <edge id=":1849019038_7" function="internal">
        <lane id=":1849019038_7_0" index="0" disallow="tram rail_urban rail rail_electric rail_fast ship" speed="13.89" length="14.64" shape="4046.01,3520.39 4048.45,3523.15 4050.94,3525.79 4053.52,3528.34 4056.24,3530.84"/>
    </edge>
    <edge id=":1849019038_8" function="internal">
        <lane id=":1849019038_8_0" index="0" disallow="tram rail_urban rail rail_electric rail_fast ship" speed="3.65" length="2.34" shape="4046.01,3520.39 4046.18,3521.82 4045.84,3522.64"/>
    </edge>
    <edge id=":1849019038_11" function="internal">
        <lane id=":1849019038_11_0" index="0" disallow="tram rail_urban rail rail_electric rail_fast ship" speed="3.65" length="2.34" shape="4045.84,3522.64 4044.97,3522.86 4043.58,3522.47"/>
    </edge>
    <edge id=":1849019090_0" function="internal">
        <lane id=":1849019090_0_0" index="0" disallow="tram rail_urban rail rail_electric rail_fast ship" speed="6.30" length="9.04" shape="4276.05,3716.01 4273.96,3714.62 4271.98,3714.30 4270.11,3715.04 4268.36,3716.85"/>
    </edge>
    <edge id=":1849019090_1" function="internal">
        <lane id=":1849019090_1_0" index="0" disallow="tram rail_urban rail rail_electric rail_fast ship" speed="8.04" length="14.49" shape="4276.05,3716.01 4273.43,3712.94 4272.42,3709.80 4273.01,3706.62 4275.20,3703.38"/>
    </edge>
    <edge id=":1849019090_2" function="internal">
        <lane id=":1849019090_2_0" index="0" disallow="tram rail_urban rail rail_electric rail_fast ship" speed="3.65" length="4.67" shape="4276.05,3716.01 4275.69,3714.62 4275.92,3713.75 4276.75,3713.42 4278.18,3713.62"/>
    </edge>
    <edge id=":1849019090_3" function="internal">
        <lane id=":1849019090_3_0" index="0" disallow="tram rail_urban rail rail_electric rail_fast ship" speed="6.55" length="9.27" shape="4277.56,3705.54 4276.18,3707.60 4275.82,3709.63 4276.49,3711.64 4278.18,3713.62"/>
    </edge>
    <edge id=":1849019090_4" function="internal">
        <lane id=":1849019090_4_0" index="0" disallow="tram rail_urban rail rail_electric rail_fast ship" speed="13.89" length="14.59" shape="4277.56,3705.54 4275.11,3708.29 4272.79,3711.06 4270.56,3713.89 4268.36,3716.85"/>
    </edge>
    <edge id=":1849019090_5" function="internal">
        <lane id=":1849019090_5_0" index="0" disallow="tram rail_urban rail rail_electric rail_fast ship" speed="3.65" length="2.34" shape="4277.56,3705.54 4276.16,3705.88 4275.30,3705.64"/>
    </edge>
    <edge id=":1849019090_9" function="internal">
        <lane id=":1849019090_9_0" index="0" disallow="tram rail_urban rail rail_electric rail_fast ship" speed="3.65" length="2.34" shape="4275.30,3705.64 4274.98,3704.80 4275.20,3703.38"/>
    </edge>
    <edge id=":1849019090_6" function="internal">
        <lane id=":1849019090_6_0" index="0" disallow="tram rail_urban rail rail_electric rail_fast ship" speed="13.89" length="14.96" shape="4265.77,3714.98 4268.00,3711.97 4270.32,3709.04 4272.72,3706.17 4275.20,3703.38"/>
    </edge>
    <edge id=":1849019090_7" function="internal">
        <lane id=":1849019090_7_0" index="0" disallow="tram rail_urban rail rail_electric rail_fast ship" speed="7.83" length="6.21" shape="4265.77,3714.98 4268.59,3712.06 4270.60,3711.26"/>
    </edge>
    <edge id=":1849019090_8" function="internal">
        <lane id=":1849019090_8_0" index="0" disallow="tram rail_urban rail rail_electric rail_fast ship" speed="3.65" length="2.34" shape="4265.77,3714.98 4267.12,3714.47 4268.00,3714.62"/>
    </edge>
    <edge id=":1849019090_10" function="internal">
        <lane id=":1849019090_10_0" index="0" disallow="tram rail_urban rail rail_electric rail_fast ship" speed="7.83" length="8.38" shape="4270.60,3711.26 4271.60,3710.86 4274.80,3711.38 4278.18,3713.62"/>
    </edge>
    <edge id=":1849019090_11" function="internal">
        <lane id=":1849019090_11_0" index="0" disallow="tram rail_urban rail rail_electric rail_fast ship" speed="3.65" length="2.34" shape="4268.00,3714.62 4268.42,3715.41 4268.36,3716.85"/>
    </edge>
    <edge id=":1849019118_0" function="internal">
        <lane id=":1849019118_0_0" index="0" disallow="tram rail_urban rail rail_electric rail_fast ship" speed="6.61" length="9.23" shape="4440.99,3756.29 4438.73,3755.30 4436.66,3755.28 4434.78,3756.25 4433.09,3758.19"/>
    </edge>
    <edge id=":1849019118_1" function="internal">
        <lane id=":1849019118_1_0" index="0" disallow="tram rail_urban rail rail_electric rail_fast ship" speed="13.89" length="14.47" shape="4440.99,3756.29 4428.60,3748.83"/>
    </edge>
    <edge id=":1849019118_2" function="internal">
        <lane id=":1849019118_2_0" index="0" disallow="tram rail_urban rail rail_electric rail_fast ship" speed="8.04" length="14.12" shape="4440.99,3756.29 4438.04,3753.79 4436.58,3750.95 4436.61,3747.74 4438.12,3744.19"/>
    </edge>
    <edge id=":1849019118_3" function="internal">
        <lane id=":1849019118_3_0" index="0" disallow="tram rail_urban rail rail_electric rail_fast ship" speed="3.65" length="4.67" shape="4440.99,3756.29 4440.40,3754.98 4440.49,3754.08 4441.25,3753.62 4442.69,3753.58"/>
    </edge>
    <edge id=":1849019118_4" function="internal">
        <lane id=":1849019118_4_0" index="0" disallow="tram rail_urban rail rail_electric rail_fast ship" speed="6.55" length="9.03" shape="4440.86,3745.85 4439.89,3748.12 4439.88,3750.16 4440.81,3751.99 4442.69,3753.58"/>
    </edge>
    <edge id=":1849019118_5" function="internal">
        <lane id=":1849019118_5_0" index="0" disallow="tram rail_urban rail rail_electric rail_fast ship" speed="13.89" length="14.58" shape="4440.86,3745.85 4433.09,3758.19"/>
    </edge>
    <edge id=":1849019118_6" function="internal">
        <lane id=":1849019118_6_0" index="0" disallow="tram rail_urban rail rail_electric rail_fast ship" speed="8.09" length="6.06" shape="4440.86,3745.85 4438.40,3748.83 4436.45,3749.85"/>
    </edge>
    <edge id=":1849019118_7" function="internal">
        <lane id=":1849019118_7_0" index="0" disallow="tram rail_urban rail rail_electric rail_fast ship" speed="3.65" length="2.34" shape="4440.86,3745.85 4439.55,3746.46 4438.66,3746.39"/>
    </edge>
    <edge id=":1849019118_16" function="internal">
        <lane id=":1849019118_16_0" index="0" disallow="tram rail_urban rail rail_electric rail_fast ship" speed="8.09" length="8.26" shape="4436.45,3749.85 4435.54,3750.32 4432.27,3750.32 4428.60,3748.83"/>
    </edge>
    <edge id=":1849019118_17" function="internal">
        <lane id=":1849019118_17_0" index="0" disallow="tram rail_urban rail rail_electric rail_fast ship" speed="3.65" length="2.34" shape="4438.66,3746.39 4438.18,3745.63 4438.12,3744.19"/>
    </edge>
    <edge id=":1849019118_8" function="internal">
        <lane id=":1849019118_8_0" index="0" disallow="tram rail_urban rail rail_electric rail_fast ship" speed="6.62" length="9.24" shape="4430.20,3746.06 4432.58,3747.03 4434.70,3747.04 4436.54,3746.10 4438.12,3744.19"/>
    </edge>
    <edge id=":1849019118_9" function="internal">
        <lane id=":1849019118_9_0" index="0" disallow="tram rail_urban rail rail_electric rail_fast ship" speed="13.89" length="14.59" shape="4430.20,3746.06 4442.69,3753.58"/>
    </edge>
    <edge id=":1849019118_10" function="internal">
        <lane id=":1849019118_10_0" index="0" disallow="tram rail_urban rail rail_electric rail_fast ship" speed="7.90" length="14.41" shape="4430.20,3746.06 4433.33,3748.52 4434.85,3751.36 4434.77,3754.58 4433.09,3758.19"/>
    </edge>
    <edge id=":1849019118_11" function="internal">
        <lane id=":1849019118_11_0" index="0" disallow="tram rail_urban rail rail_electric rail_fast ship" speed="3.65" length="4.67" shape="4430.20,3746.06 4430.84,3747.35 4430.78,3748.24 4430.04,3748.74 4428.60,3748.83"/>
    </edge>
    <edge id=":1849019118_12" function="internal">
        <lane id=":1849019118_12_0" index="0" disallow="tram rail_urban rail rail_electric rail_fast ship" speed="6.39" length="9.04" shape="4430.41,3756.44 4431.47,3754.18 4431.52,3752.15 4430.56,3750.37 4428.60,3748.83"/>
    </edge>
    <edge id=":1849019118_13" function="internal">
        <lane id=":1849019118_13_0" index="0" disallow="tram rail_urban rail rail_electric rail_fast ship" speed="13.89" length="14.47" shape="4430.41,3756.44 4438.12,3744.19"/>
    </edge>
    <edge id=":1849019118_14" function="internal">
        <lane id=":1849019118_14_0" index="0" disallow="tram rail_urban rail rail_electric rail_fast ship" speed="8.09" length="5.88" shape="4430.41,3756.44 4433.02,3753.45 4434.73,3752.59"/>
    </edge>
    <edge id=":1849019118_15" function="internal">
        <lane id=":1849019118_15_0" index="0" disallow="tram rail_urban rail rail_electric rail_fast ship" speed="3.65" length="2.34" shape="4430.41,3756.44 4431.74,3755.87 4432.63,3755.97"/>
    </edge>
    <edge id=":1849019118_18" function="internal">
        <lane id=":1849019118_18_0" index="0" disallow="tram rail_urban rail rail_electric rail_fast ship" speed="8.09" length="8.44" shape="4434.73,3752.59 4435.94,3751.98 4439.16,3752.02 4442.69,3753.58"/>
    </edge>
    <edge id=":1849019118_19" function="internal">
        <lane id=":1849019118_19_0" index="0" disallow="tram rail_urban rail rail_electric rail_fast ship" speed="3.65" length="2.34" shape="4432.63,3755.97 4433.08,3756.75 4433.09,3758.19"/>
    </edge>
    <edge id=":1849019141_0" function="internal">
        <lane id=":1849019141_0_0" index="0" disallow="tram rail_urban rail rail_electric rail_fast ship" speed="8.41" length="10.99" shape="4206.20,3775.79 4203.78,3775.89 4201.52,3776.85 4199.42,3778.68 4197.49,3781.39"/>
    </edge>
    <edge id=":1849019141_1" function="internal">
        <lane id=":1849019141_1_0" index="0" disallow="tram rail_urban rail rail_electric rail_fast ship" speed="13.89" length="12.72" shape="4206.20,3775.79 4193.75,3773.19"/>
    </edge>
    <edge id=":1849019141_2" function="internal">
        <lane id=":1849019141_2_0" index="0" disallow="tram rail_urban rail rail_electric rail_fast ship" speed="3.65" length="2.34" shape="4206.20,3775.79 4205.12,3774.84 4204.83,3773.99"/>
    </edge>
    <edge id=":1849019141_9" function="internal">
        <lane id=":1849019141_9_0" index="0" disallow="tram rail_urban rail rail_electric rail_fast ship" speed="3.65" length="2.34" shape="4204.83,3773.99 4205.33,3773.25 4206.63,3772.62"/>
    </edge>
    <edge id=":1849019141_3" function="internal">
        <lane id=":1849019141_3_0" index="0" disallow="tram rail_urban rail rail_electric rail_fast ship" speed="13.89" length="12.95" shape="4193.91,3770.22 4197.25,3770.99 4200.23,3771.60 4203.24,3772.12 4206.63,3772.62"/>
    </edge>
    <edge id=":1849019141_4" function="internal">
        <lane id=":1849019141_4_0" index="0" disallow="tram rail_urban rail rail_electric rail_fast ship" speed="7.35" length="4.79" shape="4193.91,3770.22 4197.48,3771.71 4198.04,3772.45"/>
    </edge>
    <edge id=":1849019141_5" function="internal">