<?xml version="1.0" encoding="UTF-8"?>

<!-- generated on 12/26/21 23:56:22 by Eclipse SUMO netconvert Version 1.8.0
<configuration xmlns:xsi="http://www.w3.org/2001/XMLSchema-instance" xsi:noNamespaceSchemaLocation="http://sumo.dlr.de/xsd/netconvertConfiguration.xsd">

    <input>
        <osm-files value="C:\PHD\VSL\RL-VSL\Project%20SUMO-VSL\map\map2.osm"/>
    </input>

    <projection>
        <proj.utm value="true"/>
    </projection>

    <report>
        <aggregate-warnings value="5"/>
    </report>

</configuration>
-->

<net version="1.6" junctionCornerDetail="5" limitTurnSpeed="5.50" xmlns:xsi="http://www.w3.org/2001/XMLSchema-instance" xsi:noNamespaceSchemaLocation="http://sumo.dlr.de/xsd/net_file.xsd">

    <location netOffset="-648353.26,-3726227.43" convBoundary="0.00,0.00,5348.10,4426.56" origBoundary="-7.399861,33.665593,-7.341764,33.704773" projParameter="+proj=utm +zone=29 +ellps=WGS84 +datum=WGS84 +units=m +no_defs"/>

    <type id="highway.bridleway" priority="1" numLanes="1" speed="2.78" allow="pedestrian" oneway="1" width="2.00"/>
    <type id="highway.bus_guideway" priority="1" numLanes="1" speed="27.78" allow="bus" oneway="1"/>
    <type id="highway.cycleway" priority="1" numLanes="1" speed="8.33" allow="bicycle" oneway="0" width="1.00"/>
    <type id="highway.footway" priority="1" numLanes="1" speed="2.78" allow="pedestrian" oneway="1" width="2.00"/>
    <type id="highway.ford" priority="1" numLanes="1" speed="2.78" allow="army" oneway="0"/>
    <type id="highway.living_street" priority="2" numLanes="1" speed="2.78" disallow="tram rail_urban rail rail_electric rail_fast ship" oneway="0"/>
    <type id="highway.motorway" priority="14" numLanes="2" speed="39.44" allow="private emergency authority army vip passenger hov taxi bus coach delivery truck trailer motorcycle evehicle custom1 custom2" oneway="1"/>
    <type id="highway.motorway_link" priority="9" numLanes="1" speed="22.22" allow="private emergency authority army vip passenger hov taxi bus coach delivery truck trailer motorcycle evehicle custom1 custom2" oneway="1"/>
    <type id="highway.path" priority="1" numLanes="1" speed="2.78" allow="pedestrian bicycle" oneway="0" width="2.00"/>
    <type id="highway.pedestrian" priority="1" numLanes="1" speed="2.78" allow="pedestrian" oneway="1" width="2.00"/>
    <type id="highway.primary" priority="12" numLanes="2" speed="27.78" disallow="tram rail_urban rail rail_electric rail_fast ship" oneway="0"/>
    <type id="highway.primary_link" priority="7" numLanes="1" speed="22.22" disallow="tram rail_urban rail rail_electric rail_fast ship" oneway="0"/>
    <type id="highway.raceway" priority="15" numLanes="2" speed="83.33" allow="vip" oneway="0"/>
    <type id="highway.residential" priority="3" numLanes="1" speed="13.89" disallow="tram rail_urban rail rail_electric rail_fast ship" oneway="0"/>
    <type id="highway.secondary" priority="11" numLanes="1" speed="27.78" disallow="tram rail_urban rail rail_electric rail_fast ship" oneway="0"/>
    <type id="highway.secondary_link" priority="6" numLanes="1" speed="22.22" disallow="tram rail_urban rail rail_electric rail_fast ship" oneway="0"/>
    <type id="highway.service" priority="1" numLanes="1" speed="5.56" allow="pedestrian delivery bicycle" oneway="0"/>
    <type id="highway.stairs" priority="1" numLanes="1" speed="1.39" allow="pedestrian" oneway="1" width="2.00"/>
    <type id="highway.step" priority="1" numLanes="1" speed="1.39" allow="pedestrian" oneway="1" width="2.00"/>
    <type id="highway.steps" priority="1" numLanes="1" speed="1.39" allow="pedestrian" oneway="1" width="2.00"/>
    <type id="highway.tertiary" priority="10" numLanes="1" speed="22.22" disallow="tram rail_urban rail rail_electric rail_fast ship" oneway="0"/>
    <type id="highway.tertiary_link" priority="5" numLanes="1" speed="22.22" disallow="tram rail_urban rail rail_electric rail_fast ship" oneway="0"/>
    <type id="highway.track" priority="1" numLanes="1" speed="5.56" allow="pedestrian motorcycle moped bicycle" oneway="0"/>
    <type id="highway.trunk" priority="13" numLanes="2" speed="27.78" disallow="pedestrian bicycle tram rail_urban rail rail_electric rail_fast ship" oneway="0"/>
    <type id="highway.trunk_link" priority="8" numLanes="1" speed="22.22" disallow="pedestrian bicycle tram rail_urban rail rail_electric rail_fast ship" oneway="0"/>
    <type id="highway.unclassified" priority="4" numLanes="1" speed="13.89" disallow="tram rail_urban rail rail_electric rail_fast ship" oneway="0"/>
    <type id="highway.unsurfaced" priority="1" numLanes="1" speed="8.33" disallow="tram rail_urban rail rail_electric rail_fast ship" oneway="0"/>
    <type id="railway.highspeed" priority="21" numLanes="1" speed="69.44" allow="rail_fast" oneway="1"/>
    <type id="railway.light_rail" priority="19" numLanes="1" speed="27.78" allow="rail_urban" oneway="1"/>
    <type id="railway.preserved" priority="16" numLanes="1" speed="27.78" allow="rail" oneway="1"/>
    <type id="railway.rail" priority="20" numLanes="1" speed="44.44" allow="rail" oneway="1"/>
    <type id="railway.subway" priority="18" numLanes="1" speed="27.78" allow="rail_urban" oneway="1"/>
    <type id="railway.tram" priority="17" numLanes="1" speed="13.89" allow="tram" oneway="1"/>

    <edge id=":1849018776_0" function="internal">
        <lane id=":1849018776_0_0" index="0" allow="pedestrian motorcycle moped bicycle" speed="3.65" length="4.67" shape="3910.08,2843.04 3909.89,2841.61 3910.23,2840.78 3911.10,2840.55 3912.49,2840.93"/>
    </edge>
    <edge id=":1849018798_0" function="internal">
        <lane id=":1849018798_0_0" index="0" disallow="tram rail_urban rail rail_electric rail_fast ship" speed="6.30" length="9.04" shape="3892.35,2947.32 3890.46,2945.66 3888.54,2945.08 3886.59,2945.56 3884.61,2947.11"/>
    </edge>
    <edge id=":1849018798_1" function="internal">
        <lane id=":1849018798_1_0" index="0" disallow="tram rail_urban rail rail_electric rail_fast ship" speed="13.89" length="14.44" shape="3892.35,2947.32 3882.95,2936.36"/>
    </edge>
    <edge id=":1849018798_2" function="internal">
        <lane id=":1849018798_2_0" index="0" disallow="tram rail_urban rail rail_electric rail_fast ship" speed="3.65" length="2.34" shape="3892.35,2947.32 3892.17,2945.89 3892.52,2945.07"/>
    </edge>
    <edge id=":1849018798_9" function="internal">
        <lane id=":1849018798_9_0" index="0" disallow="tram rail_urban rail rail_electric rail_fast ship" speed="3.65" length="2.34" shape="3892.52,2945.07 3893.39,2944.85 3894.78,2945.24"/>
    </edge>
    <edge id=":1849018798_3" function="internal">
        <lane id=":1849018798_3_0" index="0" disallow="tram rail_urban rail rail_electric rail_fast ship" speed="13.89" length="14.45" shape="3885.38,2934.27 3894.78,2945.24"/>
    </edge>
    <edge id=":1849018798_4" function="internal">
        <lane id=":1849018798_4_0" index="0" disallow="tram rail_urban rail rail_electric rail_fast ship" speed="8.35" length="5.78" shape="3885.38,2934.27 3887.37,2937.45 3887.71,2939.45"/>
    </edge>
    <edge id=":1849018798_5" function="internal">
        <lane id=":1849018798_5_0" index="0" disallow="tram rail_urban rail rail_electric rail_fast ship" speed="3.65" length="2.34" shape="3885.38,2934.27 3885.55,2935.71 3885.21,2936.53"/>
    </edge>
    <edge id=":1849018798_10" function="internal">
        <lane id=":1849018798_10_0" index="0" disallow="tram rail_urban rail rail_electric rail_fast ship" speed="8.35" length="8.58" shape="3887.71,2939.45 3887.91,2940.65 3886.99,2943.87 3884.61,2947.11"/>
    </edge>
    <edge id=":1849018798_11" function="internal">
        <lane id=":1849018798_11_0" index="0" disallow="tram rail_urban rail rail_electric rail_fast ship" speed="3.65" length="2.34" shape="3885.21,2936.53 3884.34,2936.75 3882.95,2936.36"/>
    </edge>
    <edge id=":1849018798_6" function="internal">
        <lane id=":1849018798_6_0" index="0" disallow="tram rail_urban rail rail_electric rail_fast ship" speed="6.92" length="9.56" shape="3882.30,2944.90 3883.92,2942.71 3884.56,2940.56 3884.24,2938.44 3882.95,2936.36"/>
    </edge>
    <edge id=":1849018798_7" function="internal">
        <lane id=":1849018798_7_0" index="0" disallow="tram rail_urban rail rail_electric rail_fast ship" speed="7.83" length="14.59" shape="3882.30,2944.90 3885.49,2942.40 3888.63,2941.62 3891.73,2942.57 3894.78,2945.24"/>
    </edge>
    <edge id=":1849018798_8" function="internal">
        <lane id=":1849018798_8_0" index="0" disallow="tram rail_urban rail rail_electric rail_fast ship" speed="3.65" length="4.67" shape="3882.30,2944.90 3883.70,2944.59 3884.56,2944.85 3884.86,2945.69 3884.61,2947.11"/>
    </edge>
    <edge id=":1849018803_0" function="internal">
        <lane id=":1849018803_0_0" index="0" disallow="tram rail_urban rail rail_electric rail_fast ship" speed="3.65" length="4.67" shape="3780.94,2971.16 3780.36,2969.84 3780.46,2968.95 3781.23,2968.50 3782.67,2968.47"/>
    </edge>
    <edge id=":1849018807_0" function="internal">
        <lane id=":1849018807_0_0" index="0" disallow="tram rail_urban rail rail_electric rail_fast ship" speed="6.42" length="9.04" shape="3934.08,2996.08 3932.20,2994.45 3930.27,2993.84 3928.28,2994.25 3926.24,2995.68"/>
    </edge>
    <edge id=":1849018807_1" function="internal">
        <lane id=":1849018807_1_0" index="0" disallow="tram rail_urban rail rail_electric rail_fast ship" speed="13.89" length="14.39" shape="3934.08,2996.08 3924.69,2985.18"/>
    </edge>
    <edge id=":1849018807_2" function="internal">
        <lane id=":1849018807_2_0" index="0" disallow="tram rail_urban rail rail_electric rail_fast ship" speed="3.65" length="2.34" shape="3934.08,2996.08 3933.90,2994.65 3934.24,2993.82"/>
    </edge>
    <edge id=":1849018807_9" function="internal">
        <lane id=":1849018807_9_0" index="0" disallow="tram rail_urban rail rail_electric rail_fast ship" speed="3.65" length="2.34" shape="3934.24,2993.82 3935.11,2993.60 3936.50,2993.98"/>
    </edge>
    <edge id=":1849018807_3" function="internal">
        <lane id=":1849018807_3_0" index="0" disallow="tram rail_urban rail rail_electric rail_fast ship" speed="13.89" length="14.37" shape="3927.12,2983.10 3936.50,2993.98"/>
    </edge>
    <edge id=":1849018807_4" function="internal">
        <lane id=":1849018807_4_0" index="0" disallow="tram rail_urban rail rail_electric rail_fast ship" speed="8.15" length="5.81" shape="3927.12,2983.10 3929.16,2986.33 3929.49,2988.29"/>
    </edge>
    <edge id=":1849018807_5" function="internal">
        <lane id=":1849018807_5_0" index="0" disallow="tram rail_urban rail rail_electric rail_fast ship" speed="3.65" length="2.34" shape="3927.12,2983.10 3927.29,2984.53 3926.95,2985.35"/>
    </edge>
    <edge id=":1849018807_10" function="internal">
        <lane id=":1849018807_10_0" index="0" disallow="tram rail_urban rail rail_electric rail_fast ship" speed="8.15" length="8.43" shape="3929.49,2988.29 3929.69,2989.50 3928.72,2992.62 3926.24,2995.68"/>
    </edge>
    <edge id=":1849018807_11" function="internal">
        <lane id=":1849018807_11_0" index="0" disallow="tram rail_urban rail rail_electric rail_fast ship" speed="3.65" length="2.34" shape="3926.95,2985.35 3926.08,2985.57 3924.69,2985.18"/>
    </edge>
    <edge id=":1849018807_6" function="internal">
        <lane id=":1849018807_6_0" index="0" disallow="tram rail_urban rail rail_electric rail_fast ship" speed="6.69" length="9.25" shape="3924.05,2993.35 3925.68,2991.35 3926.33,2989.32 3926.00,2987.26 3924.69,2985.18"/>
    </edge>
    <edge id=":1849018807_7" function="internal">
        <lane id=":1849018807_7_0" index="0" disallow="tram rail_urban rail rail_electric rail_fast ship" speed="7.93" length="14.34" shape="3924.05,2993.35 3927.29,2991.08 3930.44,2990.43 3933.51,2991.40 3936.50,2993.98"/>
    </edge>
    <edge id=":1849018807_8" function="internal">
        <lane id=":1849018807_8_0" index="0" disallow="tram rail_urban rail rail_electric rail_fast ship" speed="3.65" length="4.67" shape="3924.05,2993.35 3925.47,2993.11 3926.31,2993.42 3926.57,2994.28 3926.24,2995.68"/>
    </edge>
    <edge id=":1849018823_0" function="internal">
        <lane id=":1849018823_0_0" index="0" disallow="tram rail_urban rail rail_electric rail_fast ship" speed="6.42" length="9.20" shape="3833.20,3009.19 3831.28,3007.58 3829.32,3007.04 3827.31,3007.56 3825.26,3009.13"/>
    </edge>
    <edge id=":1849018823_1" function="internal">
        <lane id=":1849018823_1_0" index="0" disallow="tram rail_urban rail rail_electric rail_fast ship" speed="13.89" length="14.69" shape="3833.20,3009.19 3830.68,3006.48 3828.06,3003.94 3825.33,3001.53 3822.44,2999.21"/>
    </edge>
    <edge id=":1849018823_2" function="internal">
        <lane id=":1849018823_2_0" index="0" disallow="tram rail_urban rail rail_electric rail_fast ship" speed="8.27" length="14.28" shape="3833.20,3009.19 3830.98,3005.90 3830.22,3002.68 3830.93,2999.53 3833.11,2996.45"/>
    </edge>
    <edge id=":1849018823_3" function="internal">
        <lane id=":1849018823_3_0" index="0" disallow="tram rail_urban rail rail_electric rail_fast ship" speed="3.65" length="4.67" shape="3833.20,3009.19 3833.00,3007.76 3833.33,3006.93 3834.20,3006.70 3835.59,3007.06"/>
    </edge>
    <edge id=":1849018823_4" function="internal">
        <lane id=":1849018823_4_0" index="0" disallow="tram rail_urban rail rail_electric rail_fast ship" speed="6.83" length="9.42" shape="3835.42,2998.66 3834.01,3000.67 3833.57,3002.74 3834.10,3004.87 3835.59,3007.06"/>
    </edge>
    <edge id=":1849018823_5" function="internal">
        <lane id=":1849018823_5_0" index="0" disallow="tram rail_urban rail rail_electric rail_fast ship" speed="13.89" length="14.60" shape="3835.42,2998.66 3825.26,3009.13"/>
    </edge>
    <edge id=":1849018823_6" function="internal">
        <lane id=":1849018823_6_0" index="0" disallow="tram rail_urban rail rail_electric rail_fast ship" speed="8.41" length="5.87" shape="3835.42,2998.66 3832.44,3000.96 3830.42,3001.52"/>
    </edge>
    <edge id=":1849018823_7" function="internal">
        <lane id=":1849018823_7_0" index="0" disallow="tram rail_urban rail rail_electric rail_fast ship" speed="3.65" length="2.34" shape="3835.42,2998.66 3834.01,2998.97 3833.16,2998.71"/>
    </edge>
    <edge id=":1849018823_16" function="internal">
        <lane id=":1849018823_16_0" index="0" disallow="tram rail_urban rail rail_electric rail_fast ship" speed="8.41" length="8.61" shape="3830.42,3001.52 3829.28,3001.83 3825.95,3001.24 3822.44,2999.21"/>
    </edge>
    <edge id=":1849018823_17" function="internal">
        <lane id=":1849018823_17_0" index="0" disallow="tram rail_urban rail rail_electric rail_fast ship" speed="3.65" length="2.34" shape="3833.16,2998.71 3832.86,2997.87 3833.11,2996.45"/>
    </edge>
    <edge id=":1849018823_8" function="internal">
        <lane id=":1849018823_8_0" index="0" disallow="tram rail_urban rail rail_electric rail_fast ship" speed="7.00" length="9.72" shape="3824.38,2996.67 3826.77,2998.07 3829.02,2998.50 3831.13,2997.96 3833.11,2996.45"/>
    </edge>
    <edge id=":1849018823_9" function="internal">
        <lane id=":1849018823_9_0" index="0" disallow="tram rail_urban rail rail_electric rail_fast ship" speed="13.89" length="15.30" shape="3824.38,2996.67 3827.34,2999.05 3830.23,3001.60 3833.00,3004.29 3835.59,3007.06"/>
    </edge>
    <edge id=":1849018823_10" function="internal">
        <lane id=":1849018823_10_0" index="0" disallow="tram rail_urban rail rail_electric rail_fast ship" speed="7.79" length="14.69" shape="3824.38,2996.67 3827.25,2999.60 3828.35,3002.65 3827.69,3005.83 3825.26,3009.13"/>
    </edge>
    <edge id=":1849018823_11" function="internal">
        <lane id=":1849018823_11_0" index="0" disallow="tram rail_urban rail rail_electric rail_fast ship" speed="3.65" length="4.67" shape="3824.38,2996.67 3824.85,2998.04 3824.68,2998.91 3823.88,2999.31 3822.44,2999.21"/>
    </edge>
    <edge id=":1849018823_12" function="internal">
        <lane id=":1849018823_12_0" index="0" disallow="tram rail_urban rail rail_electric rail_fast ship" speed="6.25" length="9.05" shape="3822.98,3006.89 3824.47,3004.85 3824.88,3002.90 3824.20,3001.02 3822.44,2999.21"/>
    </edge>
    <edge id=":1849018823_13" function="internal">
        <lane id=":1849018823_13_0" index="0" disallow="tram rail_urban rail rail_electric rail_fast ship" speed="13.89" length="14.55" shape="3822.98,3006.89 3833.11,2996.45"/>
    </edge>
    <edge id=":1849018823_14" function="internal">
        <lane id=":1849018823_14_0" index="0" disallow="tram rail_urban rail rail_electric rail_fast ship" speed="7.93" length="5.99" shape="3822.98,3006.89 3826.22,3004.40 3828.07,3003.94"/>
    </edge>
    <edge id=":1849018823_15" function="internal">
        <lane id=":1849018823_15_0" index="0" disallow="tram rail_urban rail rail_electric rail_fast ship" speed="3.65" length="2.34" shape="3822.98,3006.89 3824.39,3006.59 3825.24,3006.87"/>
    </edge>
    <edge id=":1849018823_18" function="internal">
        <lane id=":1849018823_18_0" index="0" disallow="tram rail_urban rail rail_electric rail_fast ship" speed="7.93" length="8.63" shape="3828.07,3003.94 3829.41,3003.60 3832.53,3004.49 3835.59,3007.06"/>
    </edge>
    <edge id=":1849018823_19" function="internal">
        <lane id=":1849018823_19_0" index="0" disallow="tram rail_urban rail rail_electric rail_fast ship" speed="3.65" length="2.34" shape="3825.24,3006.87 3825.53,3007.72 3825.26,3009.13"/>
    </edge>
    <edge id=":1849018840_0" function="internal">
        <lane id=":1849018840_0_0" index="0" disallow="tram rail_urban rail rail_electric rail_fast ship" speed="13.89" length="0.64" shape="3965.03,3031.91 3964.97,3031.73 3964.92,3031.61 3964.84,3031.50 3964.72,3031.36"/>
    </edge>
    <edge id=":1849018840_1" function="internal">
        <lane id=":1849018840_1_0" index="0" disallow="tram rail_urban rail rail_electric rail_fast ship" speed="9.06" length="1.92" shape="3967.14,3029.26 3967.50,3029.69 3967.73,3030.02 3967.89,3030.37 3968.07,3030.91"/>
    </edge>
    <edge id=":1849018845_0" function="internal">
        <lane id=":1849018845_0_0" index="0" disallow="tram rail_urban rail rail_electric rail_fast ship" speed="13.89" length="13.88" shape="3865.24,3057.47 3864.01,3054.12 3862.67,3051.03 3861.19,3048.01 3859.51,3044.85"/>
    </edge>
    <edge id=":1849018845_1" function="internal">
        <lane id=":1849018845_1_0" index="0" disallow="tram rail_urban rail rail_electric rail_fast ship" speed="9.76" length="5.21" shape="3865.24,3057.47 3864.67,3054.14 3864.97,3052.33"/>
    </edge>
    <edge id=":1849018845_2" function="internal">
        <lane id=":1849018845_2_0" index="0" disallow="tram rail_urban rail rail_electric rail_fast ship" speed="3.65" length="2.34" shape="3865.24,3057.47 3865.61,3056.08 3866.24,3055.44"/>
    </edge>
    <edge id=":1849018845_9" function="internal">
        <lane id=":1849018845_9_0" index="0" disallow="tram rail_urban rail rail_electric rail_fast ship" speed="9.76" length="9.32" shape="3864.97,3052.33 3865.21,3050.87 3866.87,3047.65 3869.65,3044.48"/>
    </edge>
    <edge id=":1849018845_10" function="internal">
        <lane id=":1849018845_10_0" index="0" disallow="tram rail_urban rail rail_electric rail_fast ship" speed="3.65" length="2.34" shape="3866.24,3055.44 3867.13,3055.57 3868.27,3056.45"/>
    </edge>
    <edge id=":1849018845_3" function="internal">
        <lane id=":1849018845_3_0" index="0" disallow="tram rail_urban rail rail_electric rail_fast ship" speed="8.50" length="10.87" shape="3871.84,3046.82 3869.68,3049.24 3868.36,3051.66 3867.89,3054.06 3868.27,3056.45"/>
    </edge>
    <edge id=":1849018845_4" function="internal">
        <lane id=":1849018845_4_0" index="0" disallow="tram rail_urban rail rail_electric rail_fast ship" speed="7.62" length="15.26" shape="3871.84,3046.82 3868.28,3049.31 3865.04,3049.82 3862.11,3048.33 3859.51,3044.85"/>
    </edge>
    <edge id=":1849018845_5" function="internal">
        <lane id=":1849018845_5_0" index="0" disallow="tram rail_urban rail rail_electric rail_fast ship" speed="3.65" length="4.67" shape="3871.84,3046.82 3870.42,3047.05 3869.58,3046.75 3869.32,3045.89 3869.65,3044.48"/>
    </edge>
    <edge id=":1849018845_6" function="internal">
        <lane id=":1849018845_6_0" index="0" disallow="tram rail_urban rail rail_electric rail_fast ship" speed="6.03" length="9.07" shape="3862.31,3043.32 3863.86,3045.39 3865.60,3046.27 3867.53,3045.97 3869.65,3044.48"/>
    </edge>
    <edge id=":1849018845_7" function="internal">
        <lane id=":1849018845_7_0" index="0" disallow="tram rail_urban rail rail_electric rail_fast ship" speed="13.89" length="14.44" shape="3862.31,3043.32 3864.03,3046.55 3865.59,3049.75 3867.00,3053.01 3868.27,3056.45"/>
    </edge>
    <edge id=":1849018845_8" function="internal">
        <lane id=":1849018845_8_0" index="0" disallow="tram rail_urban rail rail_electric rail_fast ship" speed="3.65" length="2.34" shape="3862.31,3043.32 3862.19,3044.75 3861.68,3045.49"/>
    </edge>
    <edge id=":1849018845_11" function="internal">
        <lane id=":1849018845_11_0" index="0" disallow="tram rail_urban rail rail_electric rail_fast ship" speed="3.65" length="2.34" shape="3861.68,3045.49 3860.78,3045.52 3859.51,3044.85"/>
    </edge>
    <edge id=":1849018860_0" function="internal">
        <lane id=":1849018860_0_0" index="0" disallow="tram rail_urban rail rail_electric rail_fast ship" speed="13.89" length="10.74" shape="3872.81,3097.23 3872.75,3086.50"/>
    </edge>
    <edge id=":1849018860_1" function="internal">
        <lane id=":1849018860_1_0" index="0" disallow="tram rail_urban rail rail_electric rail_fast ship" speed="7.41" length="6.53" shape="3872.81,3097.23 3873.48,3092.25 3874.38,3091.05"/>
    </edge>
    <edge id=":1849018860_2" function="internal">
        <lane id=":1849018860_2_0" index="0" disallow="tram rail_urban rail rail_electric rail_fast ship" speed="3.65" length="2.34" shape="3872.81,3097.23 3873.61,3096.03 3874.41,3095.64"/>
    </edge>
    <edge id=":1849018860_9" function="internal">
        <lane id=":1849018860_9_0" index="0" disallow="tram rail_urban rail rail_electric rail_fast ship" speed="7.41" length="10.24" shape="3874.38,3091.05 3875.49,3089.56 3878.82,3089.16 3883.47,3091.06"/>
    </edge>
    <edge id=":1849018860_10" function="internal">
        <lane id=":1849018860_10_0" index="0" disallow="tram rail_urban rail rail_electric rail_fast ship" speed="3.65" length="2.34" shape="3874.41,3095.64 3875.21,3096.04 3876.01,3097.24"/>
    </edge>
    <edge id=":1849018860_3" function="internal">
        <lane id=":1849018860_3_0" index="0" disallow="tram rail_urban rail rail_electric rail_fast ship" speed="5.67" length="9.23" shape="3881.88,3093.84 3879.32,3092.79 3877.48,3093.01 3876.38,3094.49 3876.01,3097.24"/>
    </edge>
    <edge id=":1849018860_4" function="internal">
        <lane id=":1849018860_4_0" index="0" disallow="tram rail_urban rail rail_electric rail_fast ship" speed="9.69" length="11.91" shape="3881.88,3093.84 3877.94,3091.45 3875.10,3089.42 3873.37,3087.77 3872.75,3086.50"/>
    </edge>
    <edge id=":1849018860_5" function="internal">
        <lane id=":1849018860_5_0" index="0" disallow="tram rail_urban rail rail_electric rail_fast ship" speed="3.65" length="4.67" shape="3881.88,3093.84 3881.24,3092.55 3881.29,3091.66 3882.04,3091.16 3883.47,3091.06"/>
    </edge>
    <edge id=":1849018860_6" function="internal">
        <lane id=":1849018860_6_0" index="0" disallow="tram rail_urban rail rail_electric rail_fast ship" speed="8.46" length="8.95" shape="3875.95,3086.32 3877.03,3087.41 3879.41,3088.88 3881.94,3090.25 3883.47,3091.06"/>
    </edge>
    <edge id=":1849018860_7" function="internal">
        <lane id=":1849018860_7_0" index="0" disallow="tram rail_urban rail rail_electric rail_fast ship" speed="13.89" length="10.92" shape="3875.95,3086.32 3876.01,3097.24"/>
    </edge>
    <edge id=":1849018860_8" function="internal">
        <lane id=":1849018860_8_0" index="0" disallow="tram rail_urban rail rail_electric rail_fast ship" speed="3.65" length="2.34" shape="3875.95,3086.32 3875.22,3087.56 3874.44,3088.01"/>
    </edge>
    <edge id=":1849018860_11" function="internal">
        <lane id=":1849018860_11_0" index="0" disallow="tram rail_urban rail rail_electric rail_fast ship" speed="3.65" length="2.34" shape="3874.44,3088.01 3873.62,3087.65 3872.75,3086.50"/>
    </edge>
    <edge id=":1849018863_0" function="internal">
        <lane id=":1849018863_0_0" index="0" disallow="tram rail_urban rail rail_electric rail_fast ship" speed="3.65" length="4.67" shape="3827.13,3092.17 3825.82,3091.57 3825.30,3090.84 3825.57,3089.99 3826.63,3089.01"/>
    </edge>
    <edge id=":1849018864_0" function="internal">
        <lane id=":1849018864_0_0" index="0" disallow="tram rail_urban rail rail_electric rail_fast ship" speed="3.65" length="4.67" shape="3747.62,3096.73 3746.23,3097.11 3745.36,3096.89 3745.02,3096.06 3745.21,3094.63"/>
    </edge>
    <edge id=":1849018865_0" function="internal">
        <lane id=":1849018865_0_0" index="0" disallow="tram rail_urban rail rail_electric rail_fast ship" speed="9.83" length="1.77" shape="3896.15,3101.65 3895.63,3101.56 3895.28,3101.47 3894.95,3101.32 3894.49,3101.07"/>
    </edge>
    <edge id=":1849018865_1" function="internal">
        <lane id=":1849018865_1_0" index="0" disallow="tram rail_urban rail rail_electric rail_fast ship" speed="13.89" length="0.59" shape="3896.09,3098.29 3896.24,3098.38 3896.35,3098.43 3896.46,3098.46 3896.64,3098.48"/>
    </edge>
    <edge id=":1849018882_0" function="internal">
        <lane id=":1849018882_0_0" index="0" disallow="tram rail_urban rail rail_electric rail_fast ship" speed="13.89" length="0.12" shape="4095.22,3165.14 4095.13,3165.05"/>
    </edge>
    <edge id=":1849018882_1" function="internal">
        <lane id=":1849018882_1_0" index="0" disallow="tram rail_urban rail rail_electric rail_fast ship" speed="13.89" length="0.37" shape="4097.40,3162.79 4097.65,3163.06"/>
    </edge>
    <edge id=":1849018885_0" function="internal">
        <lane id=":1849018885_0_0" index="0" disallow="tram rail_urban rail rail_electric rail_fast ship" speed="6.51" length="8.90" shape="4033.38,3168.98 4031.53,3167.40 4029.61,3166.79 4027.62,3167.12 4025.56,3168.42"/>
    </edge>
    <edge id=":1849018885_1" function="internal">
        <lane id=":1849018885_1_0" index="0" disallow="tram rail_urban rail rail_electric rail_fast ship" speed="13.89" length="14.15" shape="4033.38,3168.98 4024.27,3158.15"/>
    </edge>
    <edge id=":1849018885_2" function="internal">
        <lane id=":1849018885_2_0" index="0" disallow="tram rail_urban rail rail_electric rail_fast ship" speed="3.65" length="2.34" shape="4033.38,3168.98 4033.18,3167.55 4033.52,3166.72"/>
    </edge>
    <edge id=":1849018885_9" function="internal">
        <lane id=":1849018885_9_0" index="0" disallow="tram rail_urban rail rail_electric rail_fast ship" speed="3.65" length="2.34" shape="4033.52,3166.72 4034.38,3166.49 4035.78,3166.86"/>
    </edge>
    <edge id=":1849018885_3" function="internal">
        <lane id=":1849018885_3_0" index="0" disallow="tram rail_urban rail rail_electric rail_fast ship" speed="13.89" length="13.99" shape="4026.77,3156.15 4035.78,3166.86"/>
    </edge>
    <edge id=":1849018885_4" function="internal">
        <lane id=":1849018885_4_0" index="0" disallow="tram rail_urban rail rail_electric rail_fast ship" speed="8.03" length="5.63" shape="4026.77,3156.15 4028.71,3159.43 4028.96,3161.23"/>
    </edge>
    <edge id=":1849018885_5" function="internal">
        <lane id=":1849018885_5_0" index="0" disallow="tram rail_urban rail rail_electric rail_fast ship" speed="3.65" length="2.34" shape="4026.77,3156.15 4026.90,3157.59 4026.52,3158.40"/>
    </edge>
    <edge id=":1849018885_10" function="internal">
        <lane id=":1849018885_10_0" index="0" disallow="tram rail_urban rail rail_electric rail_fast ship" speed="8.03" length="8.34" shape="4028.96,3161.23 4029.15,3162.57 4028.10,3165.56 4025.56,3168.42"/>
    </edge>
    <edge id=":1849018885_11" function="internal">
        <lane id=":1849018885_11_0" index="0" disallow="tram rail_urban rail rail_electric rail_fast ship" speed="3.65" length="2.34" shape="4026.52,3158.40 4025.65,3158.58 4024.27,3158.15"/>
    </edge>
    <edge id=":1849018885_6" function="internal">
        <lane id=":1849018885_6_0" index="0" disallow="tram rail_urban rail rail_electric rail_fast ship" speed="6.54" length="8.92" shape="4023.49,3165.98 4025.11,3164.16 4025.78,3162.24 4025.50,3160.24 4024.27,3158.15"/>
    </edge>
    <edge id=":1849018885_7" function="internal">
        <lane id=":1849018885_7_0" index="0" disallow="tram rail_urban rail rail_electric rail_fast ship" speed="8.01" length="13.98" shape="4023.49,3165.98 4026.73,3163.94 4029.85,3163.41 4032.87,3164.38 4035.78,3166.86"/>
    </edge>
    <edge id=":1849018885_8" function="internal">
        <lane id=":1849018885_8_0" index="0" disallow="tram rail_urban rail rail_electric rail_fast ship" speed="3.65" length="4.67" shape="4023.49,3165.98 4024.93,3165.81 4025.75,3166.16 4025.96,3167.03 4025.56,3168.42"/>
    </edge>
    <edge id=":1849018886_0" function="internal">
        <lane id=":1849018886_0_0" index="0" disallow="tram rail_urban rail rail_electric rail_fast ship" speed="13.89" length="0.32" shape="3923.11,3169.77 3923.05,3169.70 3923.00,3169.65 3922.95,3169.61 3922.88,3169.55"/>
    </edge>
    <edge id=":1849018886_1" function="internal">
        <lane id=":1849018886_1_0" index="0" disallow="tram rail_urban rail rail_electric rail_fast ship" speed="13.89" length="0.97" shape="3924.81,3167.00 3925.03,3167.18 3925.18,3167.30 3925.32,3167.44 3925.51,3167.66"/>
    </edge>
    <edge id=":1849018890_0" function="internal">