<?xml version="1.0" encoding="UTF-8"?>

<!-- generated on 01/01/22 00:24:10 by Eclipse SUMO netconvert Version 1.8.0
<configuration xmlns:xsi="http://www.w3.org/2001/XMLSchema-instance" xsi:noNamespaceSchemaLocation="http://sumo.dlr.de/xsd/netconvertConfiguration.xsd">

    <input>
        <osm-files value="map3.osm"/>
    </input>

    <projection>
        <proj.utm value="true"/>
    </projection>

    <report>
        <aggregate-warnings value="5"/>
    </report>

</configuration>
-->

<net version="1.6" junctionCornerDetail="5" limitTurnSpeed="5.50" xmlns:xsi="http://www.w3.org/2001/XMLSchema-instance" xsi:noNamespaceSchemaLocation="http://sumo.dlr.de/xsd/net_file.xsd">

    <location netOffset="-652512.37,-3730526.70" convBoundary="0.00,0.00,2035.65,1016.25" origBoundary="-7.354224,33.703694,-7.332313,33.712723" projParameter="+proj=utm +zone=29 +ellps=WGS84 +datum=WGS84 +units=m +no_defs"/>

    <type id="highway.bridleway" priority="1" numLanes="1" speed="2.78" allow="pedestrian" oneway="1" width="2.00"/>
    <type id="highway.bus_guideway" priority="1" numLanes="1" speed="27.78" allow="bus" oneway="1"/>
    <type id="highway.cycleway" priority="1" numLanes="1" speed="8.33" allow="bicycle" oneway="0" width="1.00"/>
    <type id="highway.footway" priority="1" numLanes="1" speed="2.78" allow="pedestrian" oneway="1" width="2.00"/>
    <type id="highway.ford" priority="1" numLanes="1" speed="2.78" allow="army" oneway="0"/>
    <type id="highway.living_street" priority="2" numLanes="1" speed="2.78" disallow="tram rail_urban rail rail_electric rail_fast ship" oneway="0"/>
    <type id="highway.motorway" priority="14" numLanes="2" speed="39.44" allow="private emergency authority army vip passenger hov taxi bus coach delivery truck trailer motorcycle evehicle custom1 custom2" oneway="1"/>
    <type id="highway.motorway_link" priority="9" numLanes="1" speed="22.22" allow="private emergency authority army vip passenger hov taxi bus coach delivery truck trailer motorcycle evehicle custom1 custom2" oneway="1"/>
    <type id="highway.path" priority="1" numLanes="1" speed="2.78" allow="pedestrian bicycle" oneway="0" width="2.00"/>
    <type id="highway.pedestrian" priority="1" numLanes="1" speed="2.78" allow="pedestrian" oneway="1" width="2.00"/>
    <type id="highway.primary" priority="12" numLanes="2" speed="27.78" disallow="tram rail_urban rail rail_electric rail_fast ship" oneway="0"/>
    <type id="highway.primary_link" priority="7" numLanes="1" speed="22.22" disallow="tram rail_urban rail rail_electric rail_fast ship" oneway="0"/>
    <type id="highway.raceway" priority="15" numLanes="2" speed="83.33" allow="vip" oneway="0"/>
    <type id="highway.residential" priority="3" numLanes="1" speed="13.89" disallow="tram rail_urban rail rail_electric rail_fast ship" oneway="0"/>
    <type id="highway.secondary" priority="11" numLanes="1" speed="27.78" disallow="tram rail_urban rail rail_electric rail_fast ship" oneway="0"/>
    <type id="highway.secondary_link" priority="6" numLanes="1" speed="22.22" disallow="tram rail_urban rail rail_electric rail_fast ship" oneway="0"/>
    <type id="highway.service" priority="1" numLanes="1" speed="5.56" allow="pedestrian delivery bicycle" oneway="0"/>
    <type id="highway.stairs" priority="1" numLanes="1" speed="1.39" allow="pedestrian" oneway="1" width="2.00"/>
    <type id="highway.step" priority="1" numLanes="1" speed="1.39" allow="pedestrian" oneway="1" width="2.00"/>
    <type id="highway.steps" priority="1" numLanes="1" speed="1.39" allow="pedestrian" oneway="1" width="2.00"/>
    <type id="highway.tertiary" priority="10" numLanes="1" speed="22.22" disallow="tram rail_urban rail rail_electric rail_fast ship" oneway="0"/>
    <type id="highway.tertiary_link" priority="5" numLanes="1" speed="22.22" disallow="tram rail_urban rail rail_electric rail_fast ship" oneway="0"/>
    <type id="highway.track" priority="1" numLanes="1" speed="5.56" allow="pedestrian motorcycle moped bicycle" oneway="0"/>
    <type id="highway.trunk" priority="13" numLanes="2" speed="27.78" disallow="pedestrian bicycle tram rail_urban rail rail_electric rail_fast ship" oneway="0"/>
    <type id="highway.trunk_link" priority="8" numLanes="1" speed="22.22" disallow="pedestrian bicycle tram rail_urban rail rail_electric rail_fast ship" oneway="0"/>
    <type id="highway.unclassified" priority="4" numLanes="1" speed="13.89" disallow="tram rail_urban rail rail_electric rail_fast ship" oneway="0"/>
    <type id="highway.unsurfaced" priority="1" numLanes="1" speed="8.33" disallow="tram rail_urban rail rail_electric rail_fast ship" oneway="0"/>
    <type id="railway.highspeed" priority="21" numLanes="1" speed="69.44" allow="rail_fast" oneway="1"/>
    <type id="railway.light_rail" priority="19" numLanes="1" speed="27.78" allow="rail_urban" oneway="1"/>
    <type id="railway.preserved" priority="16" numLanes="1" speed="27.78" allow="rail" oneway="1"/>
    <type id="railway.rail" priority="20" numLanes="1" speed="44.44" allow="rail" oneway="1"/>
    <type id="railway.subway" priority="18" numLanes="1" speed="27.78" allow="rail_urban" oneway="1"/>
    <type id="railway.tram" priority="17" numLanes="1" speed="13.89" allow="tram" oneway="1"/>

    <edge id=":3934756917_0" function="internal">
        <lane id=":3934756917_0_0" index="0" allow="pedestrian motorcycle moped bicycle" speed="3.65" length="4.67" shape="2034.20,44.82 2035.43,44.06 2036.32,44.04 2036.88,44.73 2037.10,46.16"/>
    </edge>
    <edge id=":3934763778_0" function="internal">
        <lane id=":3934763778_0_0" index="0" allow="pedestrian motorcycle moped bicycle" speed="5.56" length="9.05" shape="973.58,544.68 971.76,542.90 969.89,542.25 967.96,542.72 965.98,544.32"/>
    </edge>
    <edge id=":3934763778_1" function="internal">
        <lane id=":3934763778_1_0" index="0" allow="pedestrian motorcycle moped bicycle" speed="5.56" length="14.39" shape="973.58,544.68 965.28,532.92"/>
    </edge>
    <edge id=":3934763778_2" function="internal">
        <lane id=":3934763778_2_0" index="0" allow="pedestrian motorcycle moped bicycle" speed="3.65" length="4.67" shape="973.58,544.68 973.48,543.24 973.87,542.44 974.75,542.27 976.12,542.73"/>
    </edge>
    <edge id=":3934763778_3" function="internal">
        <lane id=":3934763778_3_0" index="0" allow="pedestrian motorcycle moped bicycle" speed="5.56" length="14.12" shape="967.97,531.20 976.12,542.73"/>
    </edge>
    <edge id=":3934763778_4" function="internal">
        <lane id=":3934763778_4_0" index="0" allow="pedestrian motorcycle moped bicycle" speed="5.56" length="14.41" shape="967.97,531.20 969.40,534.46 969.55,537.73 968.41,541.02 965.98,544.32"/>
    </edge>
    <edge id=":3934763778_5" function="internal">
        <lane id=":3934763778_5_0" index="0" allow="pedestrian motorcycle moped bicycle" speed="3.65" length="4.67" shape="967.97,531.20 967.94,532.64 967.49,533.41 966.60,533.50 965.28,532.92"/>
    </edge>
    <edge id=":3934763778_6" function="internal">
        <lane id=":3934763778_6_0" index="0" allow="pedestrian motorcycle moped bicycle" speed="5.56" length="10.16" shape="963.64,542.14 965.41,539.77 966.28,537.44 966.23,535.16 965.28,532.92"/>
    </edge>
    <edge id=":3934763778_7" function="internal">
        <lane id=":3934763778_7_0" index="0" allow="pedestrian motorcycle moped bicycle" speed="5.56" length="14.88" shape="963.64,542.14 966.89,539.52 970.05,538.74 973.13,539.81 976.12,542.73"/>
    </edge>
    <edge id=":3934763778_8" function="internal">
        <lane id=":3934763778_8_0" index="0" allow="pedestrian motorcycle moped bicycle" speed="3.65" length="4.67" shape="963.64,542.14 965.04,541.81 965.90,542.06 966.21,542.90 965.98,544.32"/>
    </edge>
    <edge id=":3934764065_0" function="internal">
        <lane id=":3934764065_0_0" index="0" disallow="tram rail_urban rail rail_electric rail_fast ship" speed="3.65" length="4.67" shape="1116.65,420.42 1117.86,421.20 1118.28,421.99 1117.90,422.80 1116.71,423.62"/>
    </edge>
    <edge id=":3934764759_0" function="internal">
        <lane id=":3934764759_0_0" index="0" allow="pedestrian motorcycle moped bicycle" speed="5.56" length="14.77" shape="1044.36,524.23 1035.82,512.18"/>
    </edge>
    <edge id=":3934764759_1" function="internal">
        <lane id=":3934764759_1_0" index="0" allow="pedestrian motorcycle moped bicycle" speed="9.68" length="15.04" shape="1044.36,524.23 1042.89,521.12 1042.61,517.74 1043.51,514.09 1045.60,510.17"/>
    </edge>
    <edge id=":3934764759_2" function="internal">
        <lane id=":3934764759_2_0" index="0" allow="pedestrian motorcycle moped bicycle" speed="3.65" length="4.67" shape="1044.36,524.23 1044.33,522.79 1044.76,522.01 1045.65,521.88 1046.99,522.41"/>
    </edge>
    <edge id=":3934764759_3" function="internal">
        <lane id=":3934764759_3_0" index="0" allow="pedestrian motorcycle moped bicycle" speed="8.43" length="11.22" shape="1048.27,511.93 1046.62,514.95 1045.86,517.70 1045.99,520.19 1046.99,522.41"/>
    </edge>
    <edge id=":3934764759_4" function="internal">
        <lane id=":3934764759_4_0" index="0" allow="pedestrian motorcycle moped bicycle" speed="7.51" length="15.81" shape="1048.27,511.93 1045.22,515.37 1042.14,516.56 1039.00,515.50 1035.82,512.18"/>
    </edge>
    <edge id=":3934764759_5" function="internal">
        <lane id=":3934764759_5_0" index="0" disallow="tram rail_urban rail rail_electric rail_fast ship" speed="3.65" length="4.67" shape="1048.27,511.93 1046.94,512.49 1046.05,512.38 1045.60,511.61 1045.60,510.17"/>
    </edge>
    <edge id=":3934764759_6" function="internal">
        <lane id=":3934764759_6_0" index="0" allow="pedestrian motorcycle moped bicycle" speed="5.86" length="9.12" shape="1038.42,510.31 1040.25,512.22 1042.06,512.84 1043.84,512.15 1045.60,510.17"/>
    </edge>
    <edge id=":3934764759_7" function="internal">
        <lane id=":3934764759_7_0" index="0" allow="pedestrian motorcycle moped bicycle" speed="5.56" length="14.83" shape="1038.42,510.31 1046.99,522.41"/>
    </edge>
    <edge id=":3934764759_8" function="internal">
        <lane id=":3934764759_8_0" index="0" allow="pedestrian motorcycle moped bicycle" speed="3.65" length="4.67" shape="1038.42,510.31 1038.47,511.75 1038.06,512.54 1037.17,512.69 1035.82,512.18"/>
    </edge>
    <edge id=":3934766032_0" function="internal">
        <lane id=":3934766032_0_0" index="0" allow="pedestrian motorcycle moped bicycle" speed="3.65" length="4.67" shape="1151.95,810.57 1151.03,811.69 1150.20,812.00 1149.44,811.53 1148.77,810.25"/>
    </edge>
    <edge id=":3934766308_0" function="internal">
        <lane id=":3934766308_0_0" index="0" allow="pedestrian motorcycle moped bicycle" speed="3.65" length="4.67" shape="739.90,800.86 738.52,801.28 737.65,801.09 737.28,800.27 737.42,798.84"/>
    </edge>
    <edge id=":6808034900_0" function="internal">
        <lane id=":6808034900_0_0" index="0" allow="pedestrian motorcycle moped bicycle" speed="3.65" length="4.67" shape="-0.94,322.38 -1.44,321.03 -1.29,320.15 -0.50,319.74 0.94,319.80"/>
    </edge>
    <edge id=":6808197532_0" function="internal">
        <lane id=":6808197532_0_0" index="0" allow="pedestrian motorcycle moped bicycle" speed="3.65" length="4.67" shape="941.05,356.03 941.79,354.80 942.57,354.36 943.39,354.72 944.24,355.89"/>
    </edge>

    <edge id="-390321573" from="3934764759" to="3934764065" priority="3" type="highway.residential" shape="1042.17,518.25 1051.40,504.29 1062.11,486.08 1073.14,468.39 1084.44,448.16 1090.54,438.58 1102.98,424.75 1108.50,422.19 1116.68,422.02">
        <lane id="-390321573_0" index="0" disallow="tram rail_urban rail rail_electric rail_fast ship" speed="13.89" length="119.04" shape="1045.60,510.17 1050.04,503.45 1060.74,485.25 1071.77,467.58 1083.06,447.34 1089.26,437.61 1102.01,423.44 1108.13,420.60 1116.65,420.42"/>
    </edge>
    <edge id="-390321613" from="3934756917" to="3934764759" priority="1" type="highway.track" shape="2035.65,45.49 2031.81,53.80 2029.19,62.11 2026.32,74.44 2022.31,87.99 2016.28,103.11 2003.30,125.48 1983.00,156.43 1981.76,160.13 1980.55,165.77 1979.98,176.22 1977.07,198.94 1975.73,216.61 1973.92,243.31 1961.48,301.75 1956.68,314.57 1954.95,319.64 1953.81,326.47 1951.50,342.69 1947.60,360.45 1938.83,380.30 1926.62,402.90 1922.97,407.54 1918.69,412.61 1913.33,415.62 1903.57,419.30 1889.67,422.08 1877.95,424.05 1872.83,425.30 1868.87,428.33 1866.47,431.87 1864.67,435.99 1863.83,440.25 1863.69,448.83 1866.75,478.78 1872.50,513.24 1875.81,531.55 1879.57,548.44 1880.01,554.38 1878.63,560.83 1877.17,564.95 1871.51,572.19 1848.86,597.19 1817.79,627.75 1779.80,662.53 1758.76,679.73 1737.81,697.37 1733.38,700.12 1728.58,702.21 1724.88,701.71 1721.44,700.24 1718.64,698.45 1716.50,695.71 1715.51,692.77 1716.15,676.23 1717.24,652.86 1719.71,632.23 1724.93,607.73 1727.07,588.71 1727.20,578.06 1725.38,558.30 1721.26,534.68 1719.62,522.50 1718.75,512.96 1718.19,506.91 1719.02,478.81 1718.03,467.23 1714.53,454.86 1707.44,439.37 1705.68,436.63 1704.01,435.25 1701.37,434.49 1698.33,434.77 1696.98,435.96 1695.83,437.58 1694.61,440.70 1693.88,453.25 1693.09,461.74 1691.00,467.93 1678.70,491.13 1668.19,508.37 1659.25,521.65 1653.45,526.69 1642.73,532.06 1614.95,541.32 1600.62,545.48 1583.54,550.01 1563.47,551.35 1547.20,550.07 1531.92,547.12 1526.74,546.59 1522.61,547.63 1516.26,550.75 1509.56,554.79 1504.84,558.24 1492.33,572.86 1475.75,590.87 1458.49,612.53 1446.94,625.12 1441.07,630.46 1435.21,636.12 1430.79,642.43 1423.95,652.09 1416.09,660.84 1409.42,666.40 1401.87,670.12 1377.14,685.25 1354.79,706.17 1316.39,732.71 1303.51,743.00 1293.23,746.39 1283.18,746.62 1277.46,745.29 1271.53,743.07 1266.69,740.07 1260.53,735.15 1254.55,731.90 1248.13,729.78 1239.68,728.57 1232.98,727.84 1227.01,728.11 1217.20,729.20 1212.10,729.52 1207.20,729.35 1202.81,727.58 1199.19,724.55 1193.75,717.14 1150.04,663.28 1115.63,619.66 1099.67,598.80 1086.91,582.42 1067.86,555.41 1042.17,518.25">
        <lane id="-390321613_0" index="0" allow="pedestrian motorcycle moped bicycle" speed="5.56" length="1976.72" shape="2037.10,46.16 2033.30,54.38 2030.73,62.53 2027.87,74.85 2023.82,88.51 2017.72,103.81 2004.66,126.32 1984.45,157.14 1983.31,160.55 1982.14,165.98 1981.58,176.36 1978.66,199.10 1977.32,216.73 1975.51,243.54 1963.02,302.20 1958.18,315.11 1956.50,320.04 1955.39,326.71 1953.07,342.98 1949.13,360.95 1940.27,381.00 1927.97,403.78 1924.21,408.55 1919.73,413.86 1914.01,417.07 1904.02,420.84 1889.96,423.65 1878.27,425.62 1873.53,426.77 1870.05,429.44 1867.88,432.65 1866.21,436.48 1865.42,440.42 1865.29,448.76 1868.33,478.56 1874.08,512.97 1877.38,531.24 1881.16,548.21 1881.62,554.49 1880.18,561.26 1878.59,565.73 1872.74,573.22 1850.02,598.30 1818.89,628.91 1780.85,663.74 1759.78,680.96 1738.76,698.67 1734.13,701.54 1728.81,703.86 1724.45,703.27 1720.69,701.66 1717.54,699.65 1715.07,696.48 1713.90,693.01 1714.55,676.17 1715.64,652.73 1718.13,631.97 1723.35,607.47 1725.47,588.61 1725.60,578.12 1723.79,558.51 1719.68,534.93 1718.03,522.68 1717.16,513.10 1716.59,506.97 1717.41,478.85 1716.44,467.51 1713.02,455.41 1706.04,440.14 1704.47,437.71 1703.25,436.70 1701.21,436.11 1699.00,436.32 1698.17,437.04 1697.25,438.35 1696.19,441.05 1695.48,453.37 1694.67,462.08 1692.48,468.57 1680.09,491.92 1669.54,509.24 1660.46,522.72 1654.34,528.03 1643.34,533.55 1615.43,542.85 1601.05,547.02 1583.80,551.60 1563.46,552.96 1546.99,551.66 1531.69,548.70 1526.85,548.21 1523.17,549.14 1517.03,552.15 1510.44,556.12 1505.93,559.42 1493.53,573.92 1476.97,591.91 1459.71,613.57 1448.07,626.26 1442.17,631.63 1436.43,637.17 1432.09,643.35 1425.20,653.09 1417.21,662.00 1410.30,667.75 1402.65,671.52 1378.11,686.53 1355.80,707.42 1317.34,733.99 1304.29,744.42 1293.50,747.98 1283.02,748.22 1276.99,746.83 1270.82,744.51 1265.77,741.38 1259.64,736.49 1253.91,733.38 1247.76,731.35 1239.48,730.16 1232.93,729.45 1227.13,729.71 1217.34,730.79 1212.12,731.13 1206.86,730.93 1201.98,728.97 1198.02,725.65 1192.48,718.12 1148.79,664.28 1114.37,620.64 1098.40,599.77 1085.63,583.37 1066.55,556.33 1044.36,524.23"/>
    </edge>
    <edge id="-390321650#0" from="3934763778" to="3934766032" priority="1" type="highway.track" shape="970.11,537.52 1135.36,753.37 1145.68,768.51 1149.28,776.49 1151.49,785.93 1151.60,794.84 1151.10,803.00 1150.36,810.41">
        <lane id="-390321650#0_0" index="0" allow="pedestrian motorcycle moped bicycle" speed="5.56" length="326.57" shape="976.12,542.73 1136.66,752.43 1147.08,767.72 1150.80,775.97 1153.09,785.73 1153.20,794.88 1152.69,803.13 1151.95,810.57"/>
    </edge>
    <edge id="-390321650#1" from="6808034900" to="3934763778" priority="1" type="highway.track" shape="0.00,321.09 19.12,335.07 31.28,344.00 34.56,347.27 37.43,350.43 39.74,351.92 41.89,353.07 44.99,354.30 47.51,355.00 49.66,355.52 53.19,357.15 73.84,369.42 87.10,379.22 98.68,390.05 103.51,395.20 123.91,410.50 164.65,439.80 214.43,471.28 221.46,475.21 225.37,476.91 227.34,477.35 229.29,477.37 229.99,477.08 230.79,476.58 231.46,475.98 232.06,475.18 232.99,473.24 244.56,453.51 314.88,370.73 328.67,355.49 336.03,344.18 340.41,336.61 344.19,331.32 349.69,327.54 352.29,326.38 354.78,326.17 356.89,326.55 359.81,328.13 364.25,332.44 369.56,340.48 371.80,342.83 374.51,344.34 376.68,344.68 379.92,343.93 382.80,342.71 386.46,341.31 394.13,335.62 411.26,321.78 432.33,302.94 452.43,281.98 480.96,247.04 519.46,205.30 522.77,202.17 524.03,201.07 524.64,200.19 524.94,199.50 525.44,198.07 525.71,193.49 526.39,185.39 525.76,177.90 527.20,170.12 529.26,160.42 530.78,152.63 531.74,143.04 532.38,133.77 531.13,126.57 529.31,115.90 521.39,90.16 516.65,75.23 495.53,23.07 495.14,20.79 495.61,18.68 496.61,16.16 502.55,6.72 505.48,2.22 506.55,1.22 507.71,0.62 508.81,0.27 511.52,0.00 518.60,0.73 531.25,4.19 560.01,15.53 643.65,44.60 716.78,73.85 723.66,76.97 725.33,78.15 726.32,79.03 727.46,80.71 730.00,85.36 732.51,91.03 752.69,137.49 783.86,197.17 804.47,238.82 824.85,279.51 848.04,329.71 867.51,367.76 879.21,389.23 923.30,464.25 970.11,537.52">
        <lane id="-390321650#1_0" index="0" allow="pedestrian motorcycle moped bicycle" speed="5.56" length="1674.02" shape="0.94,319.80 20.07,333.78 32.33,342.78 35.72,346.16 38.47,349.20 40.55,350.54 42.57,351.62 45.50,352.78 47.91,353.46 50.18,354.00 53.94,355.73 74.72,368.09 88.13,377.99 99.82,388.92 104.58,394.00 124.85,409.21 165.54,438.47 215.25,469.91 222.17,473.77 225.87,475.38 227.52,475.75 228.98,475.76 229.26,475.65 229.83,475.29 230.27,474.90 230.68,474.35 231.57,472.49 243.25,452.58 313.67,369.68 327.40,354.51 334.67,343.34 339.06,335.74 343.05,330.16 348.91,326.14 351.88,324.81 354.86,324.56 357.43,325.02 360.77,326.83 365.49,331.42 370.82,339.48 372.79,341.56 375.04,342.80 376.62,343.05 379.42,342.40 382.20,341.23 385.68,339.89 393.15,334.35 410.23,320.56 431.22,301.79 451.23,280.91 479.75,245.99 518.32,204.18 521.68,201.00 522.82,200.00 523.23,199.41 523.45,198.92 523.86,197.75 524.11,193.38 524.79,185.39 524.15,177.82 525.63,169.81 527.69,160.10 529.19,152.40 530.14,142.91 530.77,133.85 529.55,126.84 527.75,116.27 519.86,90.63 515.15,75.77 493.99,23.51 493.50,20.75 494.08,18.21 495.18,15.43 501.20,5.86 504.25,1.19 505.62,-0.10 507.10,-0.87 508.49,-1.31 511.52,-1.61 518.89,-0.84 531.76,2.67 560.57,14.03 644.21,43.10 717.41,72.38 724.46,75.57 726.33,76.89 727.53,77.97 728.83,79.88 731.44,84.65 733.98,90.39 754.14,136.80 785.29,196.45 805.90,238.11 826.29,278.81 849.48,329.01 868.92,367.02 880.60,388.44 924.67,463.41 967.97,531.20"/>
    </edge>
    <edge id="-390321656" from="3934766308" to="3934763778" priority="1" type="highway.track" shape="738.66,799.85 749.40,786.63 768.83,763.58 877.00,637.87 970.11,537.52">
        <lane id="-390321656_0" index="0" allow="pedestrian motorcycle moped bicycle" speed="5.56" length="342.22" shape="737.42,798.84 748.17,785.61 767.61,762.55 875.81,636.80 963.64,542.14"/>
    </edge>
    <edge id="-745383695" from="3934764759" to="6808197532" priority="1" type="highway.track" shape="1042.17,518.25 1032.07,504.23 1018.53,484.16 1007.12,467.02 993.38,445.15 978.57,421.58 950.19,377.32 942.95,362.78 942.64,355.96">
        <lane id="-745383695_0" index="0" allow="pedestrian motorcycle moped bicycle" speed="5.56" length="183.70" shape="1035.82,512.18 1030.76,505.14 1017.20,485.05 1005.77,467.89 992.02,446.00 977.22,422.43 948.80,378.11 941.37,363.19 941.05,356.03"/>
    </edge>
    <edge id="141130184" from="1544873327" to="1544873348" priority="14" type="highway.motorway" spreadType="center" shape="783.49,82.79 814.62,159.26 835.89,209.29 863.88,270.62 906.08,355.88 934.38,409.35 987.20,493.70 1028.47,556.24 1075.44,621.74 1109.02,667.07 1148.77,715.61 1171.96,741.97 1199.95,771.61 1225.64,798.26 1252.80,825.18 1279.85,851.85 1306.89,878.88 1373.72,943.56 1440.24,1004.65">
        <lane id="141130184_0" index="0" allow="private emergency authority army vip passenger hov taxi bus coach delivery truck trailer motorcycle evehicle custom1 custom2" speed="33.33" length="1144.85" shape="786.46,81.58 817.58,158.03 838.82,207.99 866.77,269.24 908.93,354.42 937.15,407.76 989.89,491.97 1031.11,554.42 1078.02,619.86 1111.54,665.11 1151.21,713.54 1174.33,739.81 1202.27,769.40 1227.92,796.01 1255.05,822.91 1282.10,849.58 1309.13,876.60 1375.92,941.23 1442.41,1002.29"/>
        <lane id="141130184_1" index="1" allow="private emergency authority army vip passenger hov taxi bus coach delivery truck trailer motorcycle evehicle custom1 custom2" speed="33.33" length="1144.85" shape="783.49,82.79 814.62,159.26 835.89,209.29 863.88,270.62 906.08,355.88 934.38,409.35 987.20,493.70 1028.47,556.24 1075.44,621.74 1109.02,667.07 1148.77,715.61 1171.96,741.97 1199.95,771.61 1225.64,798.26 1252.80,825.18 1279.85,851.85 1306.89,878.88 1373.72,943.56 1440.24,1004.65"/>
        <lane id="141130184_2" index="2" allow="private emergency authority army vip passenger hov taxi bus coach delivery truck trailer motorcycle evehicle custom1 custom2" speed="33.33" length="1144.85" shape="780.53,83.99 811.67,160.49 832.97,210.58 860.99,271.99 903.24,357.34 931.61,410.95 984.51,495.43 1025.83,558.05 1072.85,623.63 1106.49,669.04 1146.33,717.68 1169.60,744.12 1197.64,773.82 1223.36,800.50 1250.55,827.46 1277.59,854.12 1304.65,881.16 1371.53,945.89 1438.08,1007.00"/>
        <param key="ref" value="A1"/>
    </edge>
    <edge id="141131874" from="1544874809" to="1544874782" priority="14" type="highway.motorway" spreadType="center" shape="1430.86,1016.25 1390.06,979.34 1365.80,957.30 1349.24,942.92 1315.56,911.82 1289.26,885.41 1262.33,858.74 1240.06,837.10 1220.73,817.37 1189.66,785.93 1164.97,759.30 1133.10,723.76 1094.68,676.99 1056.69,627.88 1022.57,584.76 997.77,549.46 969.24,507.30 935.60,453.74 910.90,408.76 867.22,327.15 848.27,290.17 835.75,264.48 820.62,231.81 788.97,158.30 752.85,76.54">
        <lane id="141131874_0" index="0" allow="private emergency authority army vip passenger hov taxi bus coach delivery truck trailer motorcycle evehicle custom1 custom2" speed="33.33" length="1172.00" shape="1428.71,1018.63 1387.91,981.71 1363.67,959.69 1347.11,945.30 1313.34,914.13 1287.00,887.67 1260.09,861.03 1237.80,839.37 1218.45,819.61 1187.34,788.15 1162.61,761.46 1130.67,725.85 1092.18,678.99 1054.17,629.85 1020.01,586.67 995.14,551.28 966.56,509.05 932.84,455.36 908.09,410.28 864.39,328.64 845.41,291.60 832.86,265.85 817.70,233.12 786.04,159.58 749.93,77.83"/>
        <lane id="141131874_1" index="1" allow="private emergency authority army vip passenger hov taxi bus coach delivery truck trailer motorcycle evehicle custom1 custom2" speed="33.33" length="1172.00" shape="1430.86,1016.25 1390.06,979.34 1365.80,957.30 1349.24,942.92 1315.56,911.82 1289.26,885.41 1262.33,858.74 1240.06,837.10 1220.73,817.37 1189.66,785.93 1164.97,759.30 1133.10,723.76 1094.68,676.99 1056.69,627.88 1022.57,584.76 997.77,549.46 969.24,507.30 935.60,453.74 910.90,408.76 867.22,327.15 848.27,290.17 835.75,264.48 820.62,231.81 788.97,158.30 752.85,76.54"/>
        <lane id="141131874_2" index="2" allow="private emergency authority army vip passenger hov taxi bus coach delivery truck trailer motorcycle evehicle custom1 custom2" speed="33.33" length="1172.00" shape="1433.01,1013.88 1392.20,976.97 1367.92,954.90 1351.38,940.54 1317.78,909.51 1291.52,883.14 1264.57,856.46 1242.32,834.83 1223.01,815.12 1191.97,783.72 1167.34,757.15 1135.53,721.68 1097.19,675.00 1059.21,625.90 1025.14,582.84 1000.41,547.65 971.92,505.55 938.36,452.12 913.71,407.23 870.05,325.67 851.13,288.74 838.64,263.10 823.54,230.51 791.90,157.02 755.78,75.24"/>
        <param key="ref" value="A1"/>
    </edge>
    <edge id="390321573" from="3934764065" to="3934764759" priority="3" type="highway.residential" shape="1116.68,422.02 1108.50,422.19 1102.98,424.75 1090.54,438.58 1084.44,448.16 1073.14,468.39 1062.11,486.08 1051.40,504.29 1042.17,518.25">
        <lane id="390321573_0" index="0" disallow="tram rail_urban rail rail_electric rail_fast ship" speed="13.89" length="115.91" shape="1116.71,423.62 1108.87,423.78 1103.95,426.06 1091.82,439.55 1085.81,448.98 1074.52,469.21 1063.48,486.90 1052.75,505.14 1048.27,511.93"/>
    </edge>
    <edge id="390321613" from="3934764759" to="3934756917" priority="1" type="highway.track" shape="1042.17,518.25 1067.86,555.41 1086.91,582.42 1099.67,598.80 1115.63,619.66 1150.04,663.28 1193.75,717.14 1199.19,724.55 1202.81,727.58 1207.20,729.35 1212.10,729.52 1217.20,729.20 1227.01,728.11 1232.98,727.84 1239.68,728.57 1248.13,729.78 1254.55,731.90 1260.53,735.15 1266.69,740.07 1271.53,743.07 1277.46,745.29 1283.18,746.62 1293.23,746.39 1303.51,743.00 1316.39,732.71 1354.79,706.17 1377.14,685.25 1401.87,670.12 1409.42,666.40 1416.09,660.84 1423.95,652.09 1430.79,642.43 1435.21,636.12 1441.07,630.46 1446.94,625.12 1458.49,612.53 1475.75,590.87 1492.33,572.86 1504.84,558.24 1509.56,554.79 1516.26,550.75 1522.61,547.63 1526.74,546.59 1531.92,547.12 1547.20,550.07 1563.47,551.35 1583.54,550.01 1600.62,545.48 1614.95,541.32 1642.73,532.06 1653.45,526.69 1659.25,521.65 1668.19,508.37 1678.70,491.13 1691.00,467.93 1693.09,461.74 1693.88,453.25 1694.61,440.70 1695.83,437.58 1696.98,435.96 1698.33,434.77 1701.37,434.49 1704.01,435.25 1705.68,436.63 1707.44,439.37 1714.53,454.86 1718.03,467.23 1719.02,478.81 1718.19,506.91 1718.75,512.96 1719.62,522.50 1721.26,534.68 1725.38,558.30 1727.20,578.06 1727.07,588.71 1724.93,607.73 1719.71,632.23 1717.24,652.86 1716.15,676.23 1715.51,692.77 1716.50,695.71 1718.64,698.45 1721.44,700.24 1724.88,701.71 1728.58,702.21 1733.38,700.12 1737.81,697.37 1758.76,679.73 1779.80,662.53 1817.79,627.75 1848.86,597.19 1871.51,572.19 1877.17,564.95 1878.63,560.83 1880.01,554.38 1879.57,548.44 1875.81,531.55 1872.50,513.24 1866.75,478.78 1863.69,448.83 1863.83,440.25 1864.67,435.99 1866.47,431.87 1868.87,428.33 1872.83,425.30 1877.95,424.05 1889.67,422.08 1903.57,419.30 1913.33,415.62 1918.69,412.61 1922.97,407.54 1926.62,402.90 1938.83,380.30 1947.60,360.45 1951.50,342.69 1953.81,326.47 1954.95,319.64 1956.68,314.57 1961.48,301.75 1973.92,243.31 1975.73,216.61 1977.07,198.94 1979.98,176.22 1980.55,165.77 1981.76,160.13 1983.00,156.43 2003.30,125.48 2016.28,103.11 2022.31,87.99 2026.32,74.44 2029.19,62.11 2031.81,53.80 2035.65,45.49">
        <lane id="390321613_0" index="0" allow="pedestrian motorcycle moped bicycle" speed="5.56" length="1969.99" shape="1046.99,522.41 1069.17,554.50 1088.20,581.47 1100.93,597.82 1116.89,618.68 1151.29,662.28 1195.01,716.16 1200.37,723.44 1203.65,726.19 1207.53,727.76 1212.08,727.92 1217.06,727.60 1226.88,726.52 1233.03,726.24 1239.88,726.98 1248.49,728.22 1255.19,730.43 1261.41,733.81 1267.62,738.76 1272.24,741.63 1277.92,743.76 1283.35,745.01 1292.95,744.80 1302.74,741.57 1315.43,731.42 1353.79,704.93 1376.16,683.97 1401.10,668.71 1408.54,665.05 1414.98,659.69 1422.69,651.09 1429.48,641.51 1433.99,635.08 1439.98,629.29 1445.81,623.99 1457.28,611.49 1474.54,589.83 1491.13,571.79 1503.74,557.06 1508.67,553.45 1515.49,549.34 1522.06,546.12 1526.62,544.97 1532.15,545.53 1547.42,548.48 1563.48,549.75 1583.28,548.42 1600.19,543.94 1614.48,539.79 1642.11,530.58 1652.55,525.35 1658.04,520.58 1666.85,507.51 1677.30,490.33 1689.53,467.30 1691.52,461.41 1692.28,453.13 1693.03,440.36 1694.41,436.82 1695.78,434.88 1697.67,433.23 1701.52,432.87 1704.78,433.81 1706.89,435.56 1708.85,438.60 1716.03,454.30 1719.61,466.94 1720.62,478.77 1719.79,506.86 1720.35,512.81 1721.21,522.32 1722.84,534.44 1726.97,558.09 1728.81,578.00 1728.67,588.81 1726.51,607.98 1721.29,632.50 1718.83,652.99 1717.75,676.30 1717.12,692.54 1717.93,694.94 1719.73,697.25 1722.19,698.83 1725.31,700.15 1728.35,700.57 1732.64,698.70 1736.87,696.07 1757.74,678.50 1778.76,661.32 1816.69,626.59 1847.71,596.08 1870.29,571.16 1875.75,564.17 1877.09,560.39 1878.39,554.27 1877.99,548.67 1874.25,531.87 1870.93,513.52 1865.16,478.99 1862.09,448.90 1862.23,440.08 1863.14,435.51 1865.07,431.10 1867.69,427.22 1872.12,423.82 1877.63,422.48 1889.38,420.50 1903.13,417.75 1912.65,414.16 1917.65,411.35 1921.73,406.53 1925.28,402.02 1937.39,379.59 1946.07,359.95 1949.92,342.41 1952.23,326.22 1953.39,319.25 1955.17,314.03 1959.94,301.30 1972.33,243.09 1974.13,216.50 1975.48,198.78 1978.39,176.07 1978.96,165.55 1980.22,159.71 1981.55,155.73 2001.94,124.64 2014.84,102.41 2020.80,87.46 2024.77,74.03 2027.65,61.69 2030.31,53.22 2034.20,44.82"/>
    </edge>
    <edge id="390321650#0" from="3934766032" to="3934763778" priority="1" type="highway.track" shape="1150.36,810.41 1151.10,803.00 1151.60,794.84 1151.49,785.93 1149.28,776.49 1145.68,768.51 1135.36,753.37 970.11,537.52">
        <lane id="390321650#0_0" index="0" allow="pedestrian motorcycle moped bicycle" speed="5.56" length="324.15" shape="1148.77,810.25 1149.50,802.88 1150.00,794.80 1149.89,786.12 1147.76,777.00 1144.28,769.30 1134.06,754.31 973.58,544.68"/>
    </edge>