<?xml version="1.0" encoding="UTF-8"?>

<!-- generated on 01/21/21 01:12:21 by Eclipse SUMO netconvert Version 1.8.0
<configuration xmlns:xsi="http://www.w3.org/2001/XMLSchema-instance" xsi:noNamespaceSchemaLocation="http://sumo.dlr.de/xsd/netconvertConfiguration.xsd">

    <input>
        <osm-files value="marocV2.osm"/>
    </input>

    <output>
        <output-file value="maroc.net.xml"/>
    </output>

    <projection>
        <proj.utm value="true"/>
    </projection>

    <report>
        <aggregate-warnings value="5"/>
    </report>

</configuration>
-->

<net version="1.6" junctionCornerDetail="5" limitTurnSpeed="5.50" xmlns:xsi="http://www.w3.org/2001/XMLSchema-instance" xsi:noNamespaceSchemaLocation="http://sumo.dlr.de/xsd/net_file.xsd">

    <location netOffset="-654127.01,-3731690.75" convBoundary="0.00,0.00,14466.57,9441.03" origBoundary="-7.336660,33.714029,-7.178804,33.796936" projParameter="+proj=utm +zone=29 +ellps=WGS84 +datum=WGS84 +units=m +no_defs"/>

    <type id="highway.bridleway" priority="1" numLanes="1" speed="2.78" allow="pedestrian" oneway="1" width="2.00"/>
    <type id="highway.bus_guideway" priority="1" numLanes="1" speed="27.78" allow="bus" oneway="1"/>
    <type id="highway.cycleway" priority="1" numLanes="1" speed="8.33" allow="bicycle" oneway="0" width="1.00"/>
    <type id="highway.footway" priority="1" numLanes="1" speed="2.78" allow="pedestrian" oneway="1" width="2.00"/>
    <type id="highway.ford" priority="1" numLanes="1" speed="2.78" allow="army" oneway="0"/>
    <type id="highway.living_street" priority="2" numLanes="1" speed="2.78" disallow="tram rail_urban rail rail_electric rail_fast ship" oneway="0"/>
    <type id="highway.motorway" priority="14" numLanes="2" speed="39.44" allow="private emergency authority army vip passenger hov taxi bus coach delivery truck trailer motorcycle evehicle custom1 custom2" oneway="1"/>
    <type id="highway.motorway_link" priority="9" numLanes="1" speed="22.22" allow="private emergency authority army vip passenger hov taxi bus coach delivery truck trailer motorcycle evehicle custom1 custom2" oneway="1"/>
    <type id="highway.path" priority="1" numLanes="1" speed="2.78" allow="pedestrian bicycle" oneway="0" width="2.00"/>
    <type id="highway.pedestrian" priority="1" numLanes="1" speed="2.78" allow="pedestrian" oneway="1" width="2.00"/>
    <type id="highway.primary" priority="12" numLanes="2" speed="27.78" disallow="tram rail_urban rail rail_electric rail_fast ship" oneway="0"/>
    <type id="highway.primary_link" priority="7" numLanes="1" speed="22.22" disallow="tram rail_urban rail rail_electric rail_fast ship" oneway="0"/>
    <type id="highway.raceway" priority="15" numLanes="2" speed="83.33" allow="vip" oneway="0"/>
    <type id="highway.residential" priority="3" numLanes="1" speed="13.89" disallow="tram rail_urban rail rail_electric rail_fast ship" oneway="0"/>
    <type id="highway.secondary" priority="11" numLanes="1" speed="27.78" disallow="tram rail_urban rail rail_electric rail_fast ship" oneway="0"/>
    <type id="highway.secondary_link" priority="6" numLanes="1" speed="22.22" disallow="tram rail_urban rail rail_electric rail_fast ship" oneway="0"/>
    <type id="highway.service" priority="1" numLanes="1" speed="5.56" allow="pedestrian delivery bicycle" oneway="0"/>
    <type id="highway.stairs" priority="1" numLanes="1" speed="1.39" allow="pedestrian" oneway="1" width="2.00"/>
    <type id="highway.step" priority="1" numLanes="1" speed="1.39" allow="pedestrian" oneway="1" width="2.00"/>
    <type id="highway.steps" priority="1" numLanes="1" speed="1.39" allow="pedestrian" oneway="1" width="2.00"/>
    <type id="highway.tertiary" priority="10" numLanes="1" speed="22.22" disallow="tram rail_urban rail rail_electric rail_fast ship" oneway="0"/>
    <type id="highway.tertiary_link" priority="5" numLanes="1" speed="22.22" disallow="tram rail_urban rail rail_electric rail_fast ship" oneway="0"/>
    <type id="highway.track" priority="1" numLanes="1" speed="5.56" allow="pedestrian motorcycle moped bicycle" oneway="0"/>
    <type id="highway.trunk" priority="13" numLanes="2" speed="27.78" disallow="pedestrian bicycle tram rail_urban rail rail_electric rail_fast ship" oneway="0"/>
    <type id="highway.trunk_link" priority="8" numLanes="1" speed="22.22" disallow="pedestrian bicycle tram rail_urban rail rail_electric rail_fast ship" oneway="0"/>
    <type id="highway.unclassified" priority="4" numLanes="1" speed="13.89" disallow="tram rail_urban rail rail_electric rail_fast ship" oneway="0"/>
    <type id="highway.unsurfaced" priority="1" numLanes="1" speed="8.33" disallow="tram rail_urban rail rail_electric rail_fast ship" oneway="0"/>
    <type id="railway.highspeed" priority="21" numLanes="1" speed="69.44" allow="rail_fast" oneway="1"/>
    <type id="railway.light_rail" priority="19" numLanes="1" speed="27.78" allow="rail_urban" oneway="1"/>
    <type id="railway.preserved" priority="16" numLanes="1" speed="27.78" allow="rail" oneway="1"/>
    <type id="railway.rail" priority="20" numLanes="1" speed="44.44" allow="rail" oneway="1"/>
    <type id="railway.subway" priority="18" numLanes="1" speed="27.78" allow="rail_urban" oneway="1"/>
    <type id="railway.tram" priority="17" numLanes="1" speed="13.89" allow="tram" oneway="1"/>

    <edge id="154190805" from="5766712203" to="1544912914" priority="14" type="highway.motorway" spreadType="center" shape="14466.57,9441.03 14391.12,9423.14 14294.42,9398.93 14187.85,9371.32 14048.71,9330.55 13965.93,9307.19 13884.76,9280.76 13721.77,9224.22 13566.56,9165.97 13404.77,9103.75 13257.45,9047.68 13097.31,8986.40 12920.84,8917.87 12777.58,8862.24 12609.92,8797.35 12433.63,8729.57 12282.41,8674.72 12133.83,8616.61 12047.74,8583.82 11979.53,8557.67 11925.22,8536.68 11818.67,8494.20 11675.76,8439.32 11512.29,8376.37 11382.10,8324.96 11227.38,8264.91 11077.37,8205.18 10935.19,8151.54 10827.09,8110.35 10700.76,8060.19 10568.58,8003.26 10447.05,7944.93 10308.41,7876.60 10285.75,7865.09 10242.44,7841.09 10174.29,7802.58 10085.73,7751.10 10002.38,7700.70 9921.01,7650.34 9852.45,7606.12 9736.46,7523.12 9702.13,7498.19 9683.96,7485.27 9641.67,7452.39 9563.44,7392.69 9452.93,7305.62 9343.26,7216.59 9210.06,7110.80 9162.05,7072.09 9074.50,7001.47 8963.75,6910.42 8843.16,6811.46 8705.94,6699.52 8600.06,6613.25 8478.62,6515.35 8362.46,6420.25 8258.66,6336.25 8213.42,6300.85 8113.07,6218.27 7984.27,6113.68 7863.91,6016.66 7769.67,5940.00 7733.76,5911.19 7646.99,5840.22 7542.01,5759.29 7482.51,5714.26 7418.45,5667.04 7305.11,5588.07 7245.41,5547.74 7180.63,5506.20 7120.61,5469.81 7098.97,5456.23 7073.76,5441.20 7045.59,5424.40 6954.15,5372.03 6825.49,5302.33 6689.34,5233.99 6554.50,5169.02 6397.78,5097.61 6260.65,5035.21 6103.22,4961.70 5962.84,4892.80 5826.82,4823.97 5697.24,4756.01 5566.72,4684.19 5436.66,4614.49 5315.33,4544.97 5188.02,4468.55 5066.45,4391.50 4954.54,4321.59 4831.89,4242.30 4734.34,4175.40 4636.59,4109.04 4518.46,4024.32 4414.57,3949.76 4324.45,3880.22 4232.30,3810.64 4117.55,3722.31 4012.52,3637.26 3977.09,3607.75 3910.45,3553.58 3862.16,3512.52 3793.99,3455.43 3673.95,3351.00 3562.90,3250.22 3469.52,3162.59 3451.17,3144.72 3415.44,3110.73 3367.73,3064.92 3334.94,3033.95 3280.86,2982.10 3234.40,2935.55 3183.06,2883.25 3143.70,2843.51 3094.08,2792.47 2996.49,2692.61 2916.42,2607.05 2835.60,2521.11 2756.44,2435.02 2670.01,2341.64 2582.52,2245.47 2510.62,2167.78 2435.81,2086.73 2349.91,1994.63 2272.40,1909.12 2184.32,1814.23 2106.07,1728.71 2030.71,1647.09 1960.95,1571.67 1912.30,1521.63 1866.33,1474.85 1795.31,1406.69 1718.86,1334.81 1634.00,1257.81 1544.32,1180.93 1488.56,1133.16 1448.34,1099.60 1406.11,1066.50 1369.29,1037.69 1291.67,980.00 1246.46,947.36 1133.61,869.55 1083.68,836.82 1028.09,800.04 990.80,776.79 940.22,745.53 911.04,728.23 891.96,716.29 860.19,697.84 826.23,676.99 800.33,660.30 772.17,641.66 724.01,609.76 681.09,581.72 640.38,554.58 591.93,522.19">
        <lane id="154190805_0" index="0" allow="private emergency authority army vip passenger hov taxi bus coach delivery truck trailer motorcycle evehicle custom1 custom2" speed="33.33" length="16711.34" shape="14465.83,9444.14 14390.36,9426.24 14293.63,9402.03 14187.00,9374.41 14047.83,9333.63 13965.00,9310.26 13883.74,9283.79 13720.68,9227.23 13565.42,9168.96 13403.62,9106.74 13256.31,9050.66 13096.16,8989.39 12919.69,8920.86 12776.43,8865.22 12608.77,8800.34 12432.51,8732.56 12281.28,8677.72 12132.68,8619.60 12046.60,8586.81 11978.38,8560.66 11924.05,8539.66 11817.50,8497.18 11674.61,8442.31 11511.13,8379.35 11380.94,8327.94 11226.21,8267.89 11076.21,8208.17 10934.06,8154.53 10825.93,8113.33 10699.53,8063.14 10567.26,8006.17 10445.65,7947.81 10306.98,7879.47 10284.25,7867.91 10240.87,7843.88 10172.70,7805.35 10084.10,7753.86 10000.71,7703.43 9919.30,7653.05 9850.65,7608.77 9734.59,7525.71 9700.26,7500.79 9682.05,7487.84 9639.72,7454.93 9561.48,7395.22 9450.93,7308.12 9341.26,7219.09 9208.06,7113.30 9160.04,7074.58 9072.48,7003.95 8961.72,6912.89 8841.13,6813.94 8703.92,6702.00 8598.05,6615.73 8476.60,6517.83 8360.44,6422.73 8256.66,6338.75 8211.42,6303.34 8111.04,6220.74 7982.26,6116.17 7861.89,6019.15 7767.66,5942.49 7731.74,5913.68 7645.00,5842.72 7540.07,5761.84 7480.59,5716.82 7416.59,5669.64 7303.30,5590.71 7243.65,5550.41 7178.93,5508.92 7118.93,5472.54 7097.30,5458.96 7072.12,5443.95 7043.97,5427.16 6952.59,5374.83 6824.01,5305.17 6687.93,5236.86 6553.14,5171.92 6396.45,5100.53 6259.31,5038.12 6101.84,4964.58 5961.41,4895.66 5825.36,4826.82 5695.72,4758.83 5565.19,4687.00 5435.11,4617.29 5313.71,4547.74 5186.34,4471.28 5064.74,4394.20 4952.83,4324.29 4830.11,4244.96 4732.53,4178.04 4634.76,4111.66 4516.60,4026.92 4412.66,3952.33 4322.51,3882.77 4230.36,3813.19 4115.56,3724.82 4010.49,3639.73 3975.05,3610.22 3908.40,3556.04 3860.10,3514.96 3791.91,3457.86 3671.83,3353.39 3560.73,3252.57 3467.31,3164.91 3448.95,3147.03 3413.23,3113.05 3365.53,3067.24 3332.73,3036.26 3278.62,2984.38 3232.13,2937.80 3180.78,2885.50 3141.42,2845.75 3091.79,2794.70 2994.18,2694.82 2914.08,2609.24 2833.26,2523.29 2754.09,2437.19 2667.65,2343.80 2580.16,2247.64 2508.26,2169.95 2433.46,2088.90 2347.55,1996.79 2270.04,1911.28 2181.97,1816.40 2103.72,1730.88 2028.36,1649.27 1958.63,1573.87 1910.02,1523.86 1864.08,1477.13 1793.10,1409.01 1716.69,1337.16 1631.88,1260.21 1542.23,1183.36 1486.49,1135.60 1446.33,1102.08 1404.14,1069.02 1367.35,1040.24 1289.78,982.59 1244.62,949.97 1131.82,872.21 1081.92,839.49 1026.36,802.73 989.11,779.51 938.56,748.27 909.38,730.97 890.31,719.03 858.55,700.59 824.52,679.70 798.58,662.98 770.40,644.33 722.26,612.43 679.33,584.39 638.61,557.25 590.15,524.85"/>
        <lane id="154190805_1" index="1" allow="private emergency authority army vip passenger hov taxi bus coach delivery truck trailer motorcycle evehicle custom1 custom2" speed="33.33" length="16711.34" shape="14466.57,9441.03 14391.12,9423.14 14294.42,9398.93 14187.85,9371.32 14048.71,9330.55 13965.93,9307.19 13884.76,9280.76 13721.77,9224.22 13566.56,9165.97 13404.77,9103.75 13257.45,9047.68 13097.31,8986.40 12920.84,8917.87 12777.58,8862.24 12609.92,8797.35 12433.63,8729.57 12282.41,8674.72 12133.83,8616.61 12047.74,8583.82 11979.53,8557.67 11925.22,8536.68 11818.67,8494.20 11675.76,8439.32 11512.29,8376.37 11382.10,8324.96 11227.38,8264.91 11077.37,8205.18 10935.19,8151.54 10827.09,8110.35 10700.76,8060.19 10568.58,8003.26 10447.05,7944.93 10308.41,7876.60 10285.75,7865.09 10242.44,7841.09 10174.29,7802.58 10085.73,7751.10 10002.38,7700.70 9921.01,7650.34 9852.45,7606.12 9736.46,7523.12 9702.13,7498.19 9683.96,7485.27 9641.67,7452.39 9563.44,7392.69 9452.93,7305.62 9343.26,7216.59 9210.06,7110.80 9162.05,7072.09 9074.50,7001.47 8963.75,6910.42 8843.16,6811.46 8705.94,6699.52 8600.06,6613.25 8478.62,6515.35 8362.46,6420.25 8258.66,6336.25 8213.42,6300.85 8113.07,6218.27 7984.27,6113.68 7863.91,6016.66 7769.67,5940.00 7733.76,5911.19 7646.99,5840.22 7542.01,5759.29 7482.51,5714.26 7418.45,5667.04 7305.11,5588.07 7245.41,5547.74 7180.63,5506.20 7120.61,5469.81 7098.97,5456.23 7073.76,5441.20 7045.59,5424.40 6954.15,5372.03 6825.49,5302.33 6689.34,5233.99 6554.50,5169.02 6397.78,5097.61 6260.65,5035.21 6103.22,4961.70 5962.84,4892.80 5826.82,4823.97 5697.24,4756.01 5566.72,4684.19 5436.66,4614.49 5315.33,4544.97 5188.02,4468.55 5066.45,4391.50 4954.54,4321.59 4831.89,4242.30 4734.34,4175.40 4636.59,4109.04 4518.46,4024.32 4414.57,3949.76 4324.45,3880.22 4232.30,3810.64 4117.55,3722.31 4012.52,3637.26 3977.09,3607.75 3910.45,3553.58 3862.16,3512.52 3793.99,3455.43 3673.95,3351.00 3562.90,3250.22 3469.52,3162.59 3451.17,3144.72 3415.44,3110.73 3367.73,3064.92 3334.94,3033.95 3280.86,2982.10 3234.40,2935.55 3183.06,2883.25 3143.70,2843.51 3094.08,2792.47 2996.49,2692.61 2916.42,2607.05 2835.60,2521.11 2756.44,2435.02 2670.01,2341.64 2582.52,2245.47 2510.62,2167.78 2435.81,2086.73 2349.91,1994.63 2272.40,1909.12 2184.32,1814.23 2106.07,1728.71 2030.71,1647.09 1960.95,1571.67 1912.30,1521.63 1866.33,1474.85 1795.31,1406.69 1718.86,1334.81 1634.00,1257.81 1544.32,1180.93 1488.56,1133.16 1448.34,1099.60 1406.11,1066.50 1369.29,1037.69 1291.67,980.00 1246.46,947.36 1133.61,869.55 1083.68,836.82 1028.09,800.04 990.80,776.79 940.22,745.53 911.04,728.23 891.96,716.29 860.19,697.84 826.23,676.99 800.33,660.30 772.17,641.66 724.01,609.76 681.09,581.72 640.38,554.58 591.93,522.19"/>
        <lane id="154190805_2" index="2" allow="private emergency authority army vip passenger hov taxi bus coach delivery truck trailer motorcycle evehicle custom1 custom2" speed="33.33" length="16711.34" shape="14467.31,9437.92 14391.88,9420.03 14295.21,9395.83 14188.70,9368.24 14049.60,9327.48 13966.86,9304.13 13885.78,9277.73 13722.85,9221.21 13567.69,9162.98 13405.91,9100.76 13258.60,9044.69 13098.46,8983.42 12922.00,8914.89 12778.74,8859.26 12611.07,8794.37 12434.75,8726.57 12283.53,8671.73 12134.98,8613.63 12048.89,8580.83 11980.68,8554.68 11926.39,8533.70 11819.84,8491.22 11676.90,8436.34 11513.45,8373.39 11383.27,8321.98 11228.55,8261.93 11078.52,8202.20 10936.33,8148.55 10828.25,8107.36 10701.98,8057.23 10569.91,8000.35 10448.45,7942.05 10309.85,7873.74 10287.25,7862.26 10244.00,7838.30 10175.88,7799.80 10087.37,7748.35 10004.05,7697.97 9922.72,7647.64 9854.24,7603.48 9738.34,7520.52 9704.00,7495.59 9685.87,7482.70 9643.62,7449.86 9565.40,7390.16 9454.93,7303.12 9345.27,7214.10 9212.06,7108.31 9164.06,7069.60 9076.52,6998.99 8965.78,6907.94 8845.18,6808.99 8707.96,6697.04 8602.08,6610.76 8480.63,6512.86 8364.48,6417.76 8260.65,6333.75 8215.42,6298.35 8115.10,6215.79 7986.28,6111.19 7865.92,6014.18 7771.68,5937.51 7735.77,5908.71 7648.98,5837.71 7543.95,5756.75 7484.42,5711.69 7420.32,5664.44 7306.92,5585.43 7247.17,5545.07 7182.32,5503.49 7122.29,5467.09 7100.64,5453.50 7075.39,5438.45 7047.20,5421.64 6955.70,5369.23 6826.97,5299.49 6690.75,5231.12 6555.86,5166.13 6399.11,5094.70 6261.99,5032.30 6104.60,4958.81 5964.27,4889.93 5828.29,4821.13 5698.75,4753.20 5568.25,4681.38 5438.21,4611.69 5316.95,4542.21 5189.70,4465.83 5068.15,4388.79 4956.26,4318.89 4833.66,4239.64 4736.14,4172.76 4638.43,4106.41 4520.33,4021.72 4416.48,3947.19 4326.39,3877.68 4234.24,3808.10 4119.53,3719.80 4014.55,3634.78 3979.12,3605.28 3912.49,3551.12 3864.23,3510.07 3796.07,3453.00 3676.08,3348.61 3565.07,3247.87 3471.73,3160.28 3453.39,3142.42 3417.65,3108.42 3369.94,3062.61 3337.15,3031.63 3283.10,2979.81 3236.68,2933.30 3185.34,2881.00 3145.99,2841.27 3096.38,2790.24 2998.81,2690.40 2918.75,2604.86 2837.94,2518.93 2758.80,2432.85 2672.37,2339.47 2584.88,2243.31 2512.97,2165.61 2438.16,2084.55 2352.26,1992.46 2274.76,1906.95 2186.67,1812.07 2108.43,1726.54 2033.06,1644.92 1963.27,1569.47 1914.59,1519.39 1868.58,1472.58 1797.51,1404.37 1721.04,1332.46 1636.11,1255.41 1546.40,1178.50 1490.62,1130.72 1450.35,1097.11 1408.09,1063.98 1371.24,1035.15 1293.56,977.42 1248.31,944.74 1135.39,866.90 1085.44,834.15 1029.82,797.34 992.49,774.07 941.87,742.80 912.71,725.50 893.62,713.55 861.83,695.09 827.93,674.28 802.08,657.62 773.94,638.99 725.77,607.08 682.85,579.05 642.16,551.92 593.71,519.53"/>
        <param key="ref" value="A1"/>
    </edge>
    <edge id="486885259" from="1544894645" to="1544894852" priority="14" type="highway.motorway" spreadType="center" shape="0.00,0.00 37.46,32.09 65.12,58.89 111.31,101.09 159.33,145.29 218.79,196.24 280.10,248.71 349.42,305.51 426.51,365.64 468.67,395.53 522.53,439.83 588.28,486.56 655.15,533.05 699.68,561.73 754.04,598.12 795.14,624.03 832.82,646.04 868.21,671.11 901.58,691.08 944.62,719.00 997.46,749.55 1036.48,773.32 1092.93,810.86 1187.24,873.89 1278.66,939.54 1375.17,1012.54 1426.95,1053.73 1467.46,1085.31 1508.43,1118.64 1549.15,1152.72 1590.34,1188.03 1624.92,1217.30 1671.24,1257.40 1701.12,1285.09 1731.01,1312.55 1777.06,1353.89 1822.13,1395.70 1852.71,1425.64 1919.49,1492.43 1980.86,1554.91 2050.45,1627.89 2123.08,1706.78 2196.15,1785.97 2264.57,1860.37 2337.78,1939.86 2416.66,2025.32 2493.77,2109.73 2542.90,2162.84 2575.85,2198.48 2661.10,2291.40 2750.88,2387.49 2829.90,2473.11 2908.45,2559.89 2996.91,2655.37 3086.89,2748.07 3178.62,2842.28 3268.91,2934.26 3365.22,3027.81 3465.07,3122.46 3566.09,3217.40 3666.30,3307.63 3763.49,3392.67 3842.18,3461.21 3891.03,3502.74 3936.48,3542.14 3989.44,3586.06 4081.92,3660.08 4128.75,3698.70 4187.14,3744.20 4283.35,3816.31 4415.18,3916.44 4539.56,4006.09 4647.07,4082.59 4754.40,4155.63 4853.74,4223.26 4926.95,4272.28 4998.36,4317.40 5129.10,4399.11 5264.42,4482.74 5402.57,4563.20 5531.35,4637.55 5667.95,4713.15 5808.73,4787.92 5940.63,4854.95 6097.30,4931.14 6256.31,5006.22 6336.92,5044.28 6527.81,5131.09 6752.28,5237.28 6855.63,5290.59 7018.98,5381.03 7157.11,5464.50 7302.52,5557.49 7346.01,5587.03 7437.47,5651.91 7551.34,5736.08 7679.23,5836.56 7809.02,5941.78 7941.38,6049.39 8079.76,6160.32 8239.80,6290.79 8371.16,6397.95 8539.42,6533.82 8698.74,6662.67 8868.26,6799.99 9018.38,6918.88 9115.29,6998.53 9169.17,7040.05 9299.86,7147.32 9426.05,7247.61 9550.72,7352.04 9609.06,7398.17 9683.35,7455.58 9714.14,7478.38 9821.05,7554.15 9879.23,7594.23 9931.55,7629.00 9984.13,7663.30 10046.33,7701.70 10116.43,7743.22 10190.71,7786.29 10245.58,7817.41 10266.63,7828.65 10294.57,7843.48 10347.02,7870.59 10396.77,7895.69 10531.70,7959.73 10662.54,8016.45 10806.72,8076.63 10998.45,8150.03 11145.21,8207.26 11347.74,8283.85 11512.39,8347.83 11651.82,8401.27 11799.27,8458.29 11863.54,8483.18 11969.64,8524.45 12126.72,8585.56 12282.17,8646.63 12478.98,8720.92 12634.44,8781.00 12815.31,8850.43 12875.79,8872.51 12969.55,8909.26 13154.86,8980.51 13304.11,9040.01 13500.75,9112.37 13666.78,9175.27 13812.66,9228.16 13975.62,9281.81 14078.05,9314.99">
        <lane id="486885259_0" index="0" allow="private emergency authority army vip passenger hov taxi bus coach delivery truck trailer motorcycle evehicle custom1 custom2" speed="33.33" length="17081.93" shape="2.08,-2.43 39.62,29.73 67.32,56.56 113.47,98.73 161.45,142.90 220.87,193.81 282.16,246.26 351.42,303.01 428.42,363.08 470.61,392.99 524.48,437.28 590.12,483.94 656.93,530.39 701.44,559.06 755.78,595.44 796.80,621.30 834.55,643.35 869.96,668.43 903.27,688.36 946.30,716.27 999.09,746.79 1038.20,770.62 1094.70,808.20 1189.06,871.26 1280.56,936.96 1377.13,1010.01 1428.93,1051.21 1469.46,1082.81 1510.47,1116.17 1551.22,1150.27 1592.42,1185.59 1627.00,1214.87 1673.38,1255.01 1703.29,1282.74 1733.16,1310.19 1779.22,1351.53 1824.34,1393.38 1854.96,1423.36 1921.76,1490.17 1983.16,1552.69 2052.79,1625.71 2125.44,1704.61 2198.50,1783.80 2266.92,1858.20 2340.13,1937.69 2419.02,2023.15 2496.13,2107.56 2545.25,2160.67 2578.20,2196.31 2663.45,2289.22 2753.23,2385.31 2832.26,2470.95 2910.81,2557.73 2999.23,2653.17 3089.19,2745.84 3180.91,2840.04 3271.16,2931.99 3367.44,3025.50 3467.26,3120.13 3568.26,3215.04 3668.43,3305.24 3765.60,3390.26 3844.27,3458.78 3893.12,3500.31 3938.55,3539.70 3991.47,3583.58 4083.94,3657.60 4130.75,3696.20 4189.09,3741.66 4285.28,3813.76 4417.08,3913.86 4541.42,4003.48 4648.90,4079.96 4756.20,4152.99 4855.53,4220.61 4928.69,4269.60 5000.07,4314.69 5130.79,4396.39 5266.07,4480.00 5404.17,4560.44 5532.92,4634.76 5669.48,4710.34 5810.20,4785.08 5942.05,4852.09 6098.68,4928.25 6257.68,5003.32 6338.26,5041.37 6529.15,5128.19 6753.70,5234.41 6857.14,5287.77 7020.58,5378.26 7158.80,5461.78 7304.28,5554.82 7347.83,5584.41 7439.35,5649.32 7553.28,5733.53 7681.23,5834.06 7811.04,5939.29 7943.39,6046.90 8081.77,6157.83 8241.82,6288.31 8373.18,6395.47 8541.44,6531.33 8700.75,6660.19 8870.26,6797.49 9020.39,6916.39 9117.28,6996.03 9171.16,7037.55 9301.87,7144.83 9428.07,7245.13 9552.74,7349.56 9611.03,7395.65 9685.28,7453.03 9716.02,7475.78 9822.88,7551.52 9881.03,7591.58 9933.31,7626.33 9985.85,7660.59 10047.99,7698.97 10118.05,7740.46 10192.31,7783.51 10247.12,7814.60 10268.14,7825.83 10296.06,7840.64 10348.48,7867.74 10398.18,7892.81 10533.02,7956.81 10663.80,8013.51 10807.91,8073.65 10999.60,8147.04 11146.36,8204.27 11348.89,8280.86 11513.54,8344.85 11652.97,8398.28 11800.43,8455.30 11864.70,8480.20 11970.80,8521.47 12127.88,8582.58 12283.32,8643.65 12480.12,8717.93 12635.59,8778.01 12816.43,8847.44 12876.93,8869.52 12970.70,8906.28 13156.02,8977.53 13305.26,9037.02 13501.87,9109.38 13667.89,9172.27 13813.71,9225.14 13976.61,9278.76 14079.04,9311.95"/>
        <lane id="486885259_1" index="1" allow="private emergency authority army vip passenger hov taxi bus coach delivery truck trailer motorcycle evehicle custom1 custom2" speed="33.33" length="17081.93" shape="-0.00,0.00 37.46,32.09 65.12,58.89 111.31,101.09 159.33,145.29 218.79,196.24 280.10,248.71 349.42,305.51 426.51,365.64 468.67,395.53 522.53,439.83 588.28,486.56 655.15,533.05 699.68,561.73 754.04,598.12 795.14,624.03 832.82,646.04 868.21,671.11 901.58,691.08 944.62,719.00 997.46,749.55 1036.48,773.32 1092.93,810.86 1187.24,873.89 1278.66,939.54 1375.17,1012.54 1426.95,1053.73 1467.46,1085.31 1508.43,1118.64 1549.15,1152.72 1590.34,1188.03 1624.92,1217.30 1671.24,1257.40 1701.12,1285.09 1731.01,1312.55 1777.06,1353.89 1822.13,1395.70 1852.71,1425.64 1919.49,1492.43 1980.86,1554.91 2050.45,1627.89 2123.08,1706.78 2196.15,1785.97 2264.57,1860.37 2337.78,1939.86 2416.66,2025.32 2493.77,2109.73 2542.90,2162.84 2575.85,2198.48 2661.10,2291.40 2750.88,2387.49 2829.90,2473.11 2908.45,2559.89 2996.91,2655.37 3086.89,2748.07 3178.62,2842.28 3268.91,2934.26 3365.22,3027.81 3465.07,3122.46 3566.09,3217.40 3666.30,3307.63 3763.49,3392.67 3842.18,3461.21 3891.03,3502.74 3936.48,3542.14 3989.44,3586.06 4081.92,3660.08 4128.75,3698.70 4187.14,3744.20 4283.35,3816.31 4415.18,3916.44 4539.56,4006.09 4647.07,4082.59 4754.40,4155.63 4853.74,4223.26 4926.95,4272.28 4998.36,4317.40 5129.10,4399.11 5264.42,4482.74 5402.57,4563.20 5531.35,4637.55 5667.95,4713.15 5808.73,4787.92 5940.63,4854.95 6097.30,4931.14 6256.31,5006.22 6336.92,5044.28 6527.81,5131.09 6752.28,5237.28 6855.63,5290.59 7018.98,5381.03 7157.11,5464.50 7302.52,5557.49 7346.01,5587.03 7437.47,5651.91 7551.34,5736.08 7679.23,5836.56 7809.02,5941.78 7941.38,6049.39 8079.76,6160.32 8239.80,6290.79 8371.16,6397.95 8539.42,6533.82 8698.74,6662.67 8868.26,6799.99 9018.38,6918.88 9115.29,6998.53 9169.17,7040.05 9299.86,7147.32 9426.05,7247.61 9550.72,7352.04 9609.06,7398.17 9683.35,7455.58 9714.14,7478.38 9821.05,7554.15 9879.23,7594.23 9931.55,7629.00 9984.13,7663.30 10046.33,7701.70 10116.43,7743.22 10190.71,7786.29 10245.58,7817.41 10266.63,7828.65 10294.57,7843.48 10347.02,7870.59 10396.77,7895.69 10531.70,7959.73 10662.54,8016.45 10806.72,8076.63 10998.45,8150.03 11145.21,8207.26 11347.74,8283.85 11512.39,8347.83 11651.82,8401.27 11799.27,8458.29 11863.54,8483.18 11969.64,8524.45 12126.72,8585.56 12282.17,8646.63 12478.98,8720.92 12634.44,8781.00 12815.31,8850.43 12875.79,8872.51 12969.55,8909.26 13154.86,8980.51 13304.11,9040.01 13500.75,9112.37 13666.78,9175.27 13812.66,9228.16 13975.62,9281.81 14078.05,9314.99"/>
        <lane id="486885259_2" index="2" allow="private emergency authority army vip passenger hov taxi bus coach delivery truck trailer motorcycle evehicle custom1 custom2" speed="33.33" length="17081.93" shape="-2.08,2.43 35.30,34.46 62.93,61.23 109.15,103.45 157.20,147.68 216.71,198.67 278.05,251.16 347.42,308.01 424.60,368.21 466.73,398.07 520.58,442.37 586.44,489.17 653.36,535.71 697.93,564.41 752.30,600.80 793.47,626.77 831.08,648.73 866.46,673.80 899.88,693.79 942.95,721.72 995.83,752.30 1034.76,776.02 1091.15,813.52 1185.42,876.52 1276.76,942.12 1373.21,1015.07 1424.97,1056.24 1465.47,1087.81 1506.40,1121.11 1547.08,1155.16 1588.26,1190.46 1622.84,1219.73 1669.11,1259.78 1698.95,1287.44 1728.86,1314.92 1774.91,1356.26 1819.92,1398.02 1850.46,1427.91 1917.22,1494.68 1978.56,1557.14 2048.12,1630.08 2120.73,1708.95 2193.79,1788.13 2262.21,1862.54 2335.43,1942.03 2414.30,2027.48 2491.42,2111.89 2540.55,2165.02 2573.49,2200.65 2658.76,2293.57 2748.54,2389.67 2827.54,2475.27 2906.09,2562.05 2994.59,2657.57 3084.60,2750.30 3176.33,2844.52 3266.65,2936.53 3363.01,3030.12 3462.87,3124.78 3563.93,3219.75 3664.18,3310.03 3761.39,3395.08 3840.09,3463.63 3888.95,3505.16 3934.41,3544.59 3987.42,3588.54 4079.90,3662.56 4126.75,3701.20 4185.20,3746.75 4281.42,3818.87 4413.27,3919.01 4537.70,4008.69 4645.24,4085.22 4752.60,4158.28 4851.95,4225.92 4925.20,4274.96 4996.66,4320.11 5127.41,4401.83 5262.77,4485.48 5400.96,4565.97 5529.77,4640.33 5666.43,4715.96 5807.25,4790.76 5939.20,4857.82 6095.92,4934.02 6254.94,5009.11 6335.57,5047.18 6526.46,5134.00 6750.86,5240.15 6854.12,5293.41 7017.38,5383.80 7155.42,5467.21 7300.76,5560.16 7344.18,5589.66 7435.59,5654.50 7549.40,5738.62 7677.23,5839.06 7807.00,5944.26 7939.37,6051.88 8077.75,6162.81 8237.78,6293.27 8369.15,6400.44 8537.41,6536.31 8696.73,6665.16 8866.26,6802.49 9016.37,6921.37 9113.29,7001.04 9167.17,7042.56 9297.85,7149.81 9424.02,7250.09 9548.70,7354.52 9607.09,7400.69 9681.42,7458.14 9712.26,7480.97 9819.22,7556.77 9877.44,7596.88 9929.79,7631.68 9982.42,7666.00 10044.67,7704.44 10114.81,7745.98 10189.12,7789.06 10244.03,7820.21 10265.13,7831.48 10293.09,7846.31 10345.57,7873.44 10395.37,7898.56 10530.38,7962.64 10661.29,8019.40 10805.53,8079.60 10997.30,8153.01 11144.07,8210.25 11346.59,8286.84 11511.23,8350.82 11650.67,8404.26 11798.12,8461.27 11862.38,8486.16 11968.48,8527.43 12125.55,8588.54 12281.02,8649.62 12477.84,8723.91 12633.29,8783.98 12814.19,8853.43 12874.66,8875.51 12968.39,8912.25 13153.69,8983.49 13302.97,9043.00 13499.63,9115.37 13665.67,9178.27 13811.62,9231.19 13974.63,9284.85 14077.06,9318.04"/>
        <param key="ref" value="A1"/>
    </edge>

    <junction id="1544894645" type="dead_end" x="0.00" y="0.00" incLanes="" intLanes="" shape="-3.12,3.65 3.12,-3.65"/>
    <junction id="1544894852" type="dead_end" x="14078.05" y="9314.99" incLanes="486885259_0 486885259_1 486885259_2" intLanes="" shape="14079.53,9310.43 14076.57,9319.56"/>
    <junction id="1544912914" type="dead_end" x="591.93" y="522.19" incLanes="154190805_0 154190805_1 154190805_2" intLanes="" shape="589.26,526.18 594.60,518.20"/>
    <junction id="5766712203" type="dead_end" x="14466.57" y="9441.03" incLanes="" intLanes="" shape="14467.68,9436.36 14465.46,9445.70"/>

</net>
