<!-- Right turn - describe the different routes and vehicles on these routes -->
<routes>
	<vType id="type1" accel="0.8" decel="1"  numLanes="3" carFollowModel="Krauss"  sigma="0.5" length="5" maxSpeed="33"/>
	<vehicle id="veh1" type="type1" depart="0">
		<route edges="154190805"/>
	</vehicle>
	<vehicle id="veh2" type="type1" depart="0">
		<route edges="486885259 "/>
	</vehicle>
	<!-- Route distribution -->
	<route id="route0" edges="154190805" probability="1.0"/>
	<route id="route1" edges="486885259" probability="1.0"/>

	<!-- Traffic Flow -->
	<flow id="flow0" begin="0" type="type1" vehsPerHour = "3000" route="route0" departSpeed="random" departLane="random"/> 
	<flow id="flow1" begin="0" type="type1" vehsPerHour = "3000" route="route1" departSpeed="random" departLane="random"/> 

</routes>
				